 ****** HSPICE -- A-2008.03 32-BIT (Feb 26 2008) winnt ******                   
  Copyright (C) 2008 Synopsys, Inc. All Rights Reserved.                        
  Unpublished-rights reserved under US copyright laws.
  This program is protected by law and is subject to the 
  terms and conditions of the license agreement found in:
    C:\synopsys\Hspice_A-2008.03\license.warn
  Use of this program is your acceptance to be bound by this 
  license agreement. HSPICE is the trademark of Synopsys, Inc.
  Input File: c:\users\admin\documents\device_new\6tsramhold.sp                 
 Init: read install configuration file: C:\synopsys\Hspice_A-2008.03\meta.cfg
 Init: hspice initialization file: C:\synopsys\Hspice_A-2008.03\hspice.ini




 .options autostop
 .options ingold=2     dcon=1
 .options gshunt=1e-12 rmin=1e-15 
 .options abstol=1e-5  absvdc=1e-4 
 .options reltol=1e-2  relvdc=1e-2 
 .options numdgt=4     pivot=13
 .option captab
 .option nomod
 .temp 27
 .global vdd 

 .param  gnd=0 supply=0.4v
 .param tstep=10ns tstop=50us
 *___________________________________
 .lib '16nmhp.lib'
 s satisfy all the parameters in currrent-factor
 + w=agauss(16e-09, '0.1*16e-09', 3)	     	$ and substrate-factor includding threshold mismatch of pelgrom' law
 .endl
 .ic v(l)=0v v(h)=supply

 .ic v(blb)=supply v(bl)=supply  $ precharged

 vwwl wwl gnd dc 0v $ grounded by row selector
 *_____________________
 cbl bl gnd 3.91ff
 cblb blb gnd 3.89ff
 cwwl wwl gnd 0.5728ff
 *_____________________
 *________________________________________
 *netlist,.subkct, .ends, or .macro, .eom
 *________________________________________________
 *_________________________________________________
 *          6t
 *________________________________________________
 mp1 l h vdd vdd pmos    w='1*w' l=l  as='w*7*lamda' ps='w+2*7*lamda' ad='w*7*lamda' pd='w+2*7*lamda'
 mp2 h l vdd vdd pmos    w='1*w' l=l as='w*7*lamda' ps='w+2*7*lamda' ad='w*7*lamda' pd='w+2*7*lamda'
 mn1 l h gnd gnd nmos    w='2*w' l=l  as='w*7*lamda' ps='w+2*7*lamda' ad='w*7*lamda' pd='w+2*7*lamda'
 mn2 h l gnd gnd nmos    w='2*w' l=l as='w*7*lamda' ps='w+2*7*lamda' ad='w*7*lamda' pd='w+2*7*lamda'
 mn3 blb wwl l gnd nmos  w='1.5*w' l=l  as='w*7*lamda' ps='w+2*7*lamda' ad='w*7*lamda' pd='w+2*7*lamda'
 mn4 bl wwl h  gnd nmos  w='1.5*w' l=l  as='w*7*lamda' ps='w+2*7*lamda' ad='w*7*lamda' pd='w+2*7*lamda'
 *_________________________________________________
 *.op
 .tran tstep tstop sweep monte=500
 .measure iavg avg i(vvdd) from =0ns to tstop
 .measure spwr param='iavg*supply'
 *.measure tran avgpwr avg p(vvdd) from=0 to tstop
 .measure ireadoff param='i1(mn3)'
 .end

 ***********************************************************************
 ** runlvl is invoked, you can disable it by:
      a) Add option runlvl=0 to your current simulation job.
      b) Copy $installdir/hspice.ini to your HOME directory and
         customize it by adding option runlvl=0, which disables
         it for all of your simulation jobs.
      c) Re-invoke $installdir/bin/config program and unselect the
         option runlvl setting in box 'hspice.ini' which disables
         it for whole group simulation jobs.

 ** runlvl is invoked, some options are ignored or automatically set:
      Options below are automatically set(user setting will overwrite them):
      if runlvl=6,            .option bypass=0
      if runlvl=[1|2|3|4|5],  .option bypass=2

      Options below are ignored, they are replaced by automated algorithms:
        lvltim    dvdt      ft    fast   trtol  absvar  relvar
          relq  chgtol    dvtr    imin    itl3    rmax

 ** runlvl is invoked, actual option value used by HSPICE are:
       runlvl= 3       bypass= 2      mbypass=   2.00   bytol= 100.00u
 ***********************************************************************


 **warning** the Equation Evaluation form of the .MEASURE statement must not be a function of node voltages or branch currents. Unexpected results may incur.

 ** warning** associated with encrypted blocks were suppressed

 
      

   *** monte carlo  index =     1 ***

       MONTE CARLO PARAMETER DEFINITIONS


   iavg= -4.4029E-09  from=  0.0000E+00     to=  5.0000E-05
   spwr= -1.7612E-09
   ireadoff= -1.9713E-13

          ***** job concluded

 *** monte carlo  index =    2


 *** capacitors
    name        eff val



 *** mosfet element parameters
 name           rd eff   rs eff   cdsat    cssat     vto      beta


       MONTE CARLO PARAMETER DEFINITIONS


   iavg= -1.0357E-09  from=  0.0000E+00     to=  5.0000E-05
   spwr= -4.1429E-10
   ireadoff=  2.9884E-13

          ***** job concluded

 *** monte carlo  index =    3


 *** capacitors
    name        eff val



 *** mosfet element parameters
 name           rd eff   rs eff   cdsat    cssat     vto      beta


       MONTE CARLO PARAMETER DEFINITIONS


   iavg= -9.1710E-10  from=  0.0000E+00     to=  5.0000E-05
   spwr= -3.6684E-10
   ireadoff=  4.4396E-16

          ***** job concluded

 *** monte carlo  index =    4


 *** capacitors
    name        eff val



 *** mosfet element parameters
 name           rd eff   rs eff   cdsat    cssat     vto      beta


       MONTE CARLO PARAMETER DEFINITIONS


   iavg= -2.0103E-09  from=  0.0000E+00     to=  5.0000E-05
   spwr= -8.0412E-10
   ireadoff= -9.9337E-13

          ***** job concluded

 *** monte carlo  index =    5


 *** capacitors
    name        eff val



 *** mosfet element parameters
 name           rd eff   rs eff   cdsat    cssat     vto      beta


       MONTE CARLO PARAMETER DEFINITIONS


   iavg= -1.0376E-08  from=  0.0000E+00     to=  5.0000E-05
   spwr= -4.1505E-09
   ireadoff= -1.7753E-13

          ***** job concluded

 *** monte carlo  index =    6


 *** capacitors
    name        eff val



 *** mosfet element parameters
 name           rd eff   rs eff   cdsat    cssat     vto      beta


       MONTE CARLO PARAMETER DEFINITIONS


   iavg= -2.0774E-09  from=  0.0000E+00     to=  5.0000E-05
   spwr= -8.3097E-10
   ireadoff= -1.2910E-13

          ***** job concluded

 *** monte carlo  index =    7


 *** capacitors
    name        eff val



 *** mosfet element parameters
 name           rd eff   rs eff   cdsat    cssat     vto      beta


       MONTE CARLO PARAMETER DEFINITIONS


   iavg= -2.5076E-09  from=  0.0000E+00     to=  5.0000E-05
   spwr= -1.0030E-09
   ireadoff=  6.5396E-13

          ***** job concluded

 *** monte carlo  index =    8


 *** capacitors
    name        eff val



 *** mosfet element parameters
 name           rd eff   rs eff   cdsat    cssat     vto      beta


       MONTE CARLO PARAMETER DEFINITIONS


   iavg= -1.5063E-09  from=  0.0000E+00     to=  5.0000E-05
   spwr= -6.0252E-10
   ireadoff= -1.9779E-13

          ***** job concluded

 *** monte carlo  index =    9


 *** capacitors
    name        eff val



 *** mosfet element parameters
 name           rd eff   rs eff   cdsat    cssat     vto      beta


       MONTE CARLO PARAMETER DEFINITIONS


   iavg= -2.9674E-09  from=  0.0000E+00     to=  5.0000E-05
   spwr= -1.1870E-09
   ireadoff= -8.3057E-13

          ***** job concluded

 *** monte carlo  index =   10


 *** capacitors
    name        eff val



 *** mosfet element parameters
 name           rd eff   rs eff   cdsat    cssat     vto      beta


       MONTE CARLO PARAMETER DEFINITIONS


   iavg= -1.3754E-09  from=  0.0000E+00     to=  5.0000E-05
   spwr= -5.5017E-10
   ireadoff= -5.0525E-13

          ***** job concluded

 *** monte carlo  index =   11


 *** capacitors
    name        eff val



 *** mosfet element parameters
 name           rd eff   rs eff   cdsat    cssat     vto      beta


       MONTE CARLO PARAMETER DEFINITIONS


   iavg= -3.7197E-09  from=  0.0000E+00     to=  5.0000E-05
   spwr= -1.4879E-09
   ireadoff= -1.4685E-12

          ***** job concluded

 *** monte carlo  index =   12


 *** capacitors
    name        eff val



 *** mosfet element parameters
 name           rd eff   rs eff   cdsat    cssat     vto      beta


       MONTE CARLO PARAMETER DEFINITIONS


   iavg= -9.6570E-10  from=  0.0000E+00     to=  5.0000E-05
   spwr= -3.8628E-10
   ireadoff= -1.5691E-13

          ***** job concluded

 *** monte carlo  index =   13


 *** capacitors
    name        eff val



 *** mosfet element parameters
 name           rd eff   rs eff   cdsat    cssat     vto      beta


       MONTE CARLO PARAMETER DEFINITIONS


   iavg= -3.4248E-09  from=  0.0000E+00     to=  5.0000E-05
   spwr= -1.3699E-09
   ireadoff=  8.1694E-14

          ***** job concluded

 *** monte carlo  index =   14


 *** capacitors
    name        eff val



 *** mosfet element parameters
 name           rd eff   rs eff   cdsat    cssat     vto      beta


       MONTE CARLO PARAMETER DEFINITIONS


   iavg= -1.8238E-09  from=  0.0000E+00     to=  5.0000E-05
   spwr= -7.2954E-10
   ireadoff= -7.4246E-13

          ***** job concluded

 *** monte carlo  index =   15


 *** capacitors
    name        eff val



 *** mosfet element parameters
 name           rd eff   rs eff   cdsat    cssat     vto      beta


       MONTE CARLO PARAMETER DEFINITIONS


   iavg= -2.0090E-09  from=  0.0000E+00     to=  5.0000E-05
   spwr= -8.0358E-10
   ireadoff= -2.2148E-12

          ***** job concluded

 *** monte carlo  index =   16


 *** capacitors
    name        eff val



 *** mosfet element parameters
 name           rd eff   rs eff   cdsat    cssat     vto      beta


       MONTE CARLO PARAMETER DEFINITIONS


   iavg= -1.1815E-09  from=  0.0000E+00     to=  5.0000E-05
   spwr= -4.7258E-10
   ireadoff=  9.8495E-12

          ***** job concluded

 *** monte carlo  index =   17


 *** capacitors
    name        eff val



 *** mosfet element parameters
 name           rd eff   rs eff   cdsat    cssat     vto      beta


       MONTE CARLO PARAMETER DEFINITIONS


   iavg= -2.2130E-09  from=  0.0000E+00     to=  5.0000E-05
   spwr= -8.8521E-10
   ireadoff=  1.7177E-12

          ***** job concluded

 *** monte carlo  index =   18


 *** capacitors
    name        eff val



 *** mosfet element parameters
 name           rd eff   rs eff   cdsat    cssat     vto      beta


       MONTE CARLO PARAMETER DEFINITIONS


   iavg= -3.0116E-09  from=  0.0000E+00     to=  5.0000E-05
   spwr= -1.2046E-09
   ireadoff= -1.4534E-13

          ***** job concluded

 *** monte carlo  index =   19


 *** capacitors
    name        eff val



 *** mosfet element parameters
 name           rd eff   rs eff   cdsat    cssat     vto      beta


       MONTE CARLO PARAMETER DEFINITIONS


   iavg= -4.5072E-10  from=  0.0000E+00     to=  5.0000E-05
   spwr= -1.8029E-10
   ireadoff=  1.1206E-12

          ***** job concluded

 *** monte carlo  index =   20


 *** capacitors
    name        eff val



 *** mosfet element parameters
 name           rd eff   rs eff   cdsat    cssat     vto      beta


       MONTE CARLO PARAMETER DEFINITIONS


   iavg= -1.5391E-09  from=  0.0000E+00     to=  5.0000E-05
   spwr= -6.1564E-10
   ireadoff=  2.7280E-13

          ***** job concluded

 *** monte carlo  index =   21


 *** capacitors
    name        eff val



 *** mosfet element parameters
 name           rd eff   rs eff   cdsat    cssat     vto      beta


       MONTE CARLO PARAMETER DEFINITIONS


   iavg= -1.0318E-09  from=  0.0000E+00     to=  5.0000E-05
   spwr= -4.1271E-10
   ireadoff= -4.2020E-14

          ***** job concluded

 *** monte carlo  index =   22


 *** capacitors
    name        eff val



 *** mosfet element parameters
 name           rd eff   rs eff   cdsat    cssat     vto      beta


       MONTE CARLO PARAMETER DEFINITIONS


   iavg= -2.1799E-09  from=  0.0000E+00     to=  5.0000E-05
   spwr= -8.7195E-10
   ireadoff=  1.5266E-12

          ***** job concluded

 *** monte carlo  index =   23


 *** capacitors
    name        eff val



 *** mosfet element parameters
 name           rd eff   rs eff   cdsat    cssat     vto      beta


       MONTE CARLO PARAMETER DEFINITIONS


   iavg= -2.5176E-09  from=  0.0000E+00     to=  5.0000E-05
   spwr= -1.0070E-09
   ireadoff= -1.6969E-12

          ***** job concluded

 *** monte carlo  index =   24


 *** capacitors
    name        eff val



 *** mosfet element parameters
 name           rd eff   rs eff   cdsat    cssat     vto      beta


       MONTE CARLO PARAMETER DEFINITIONS


   iavg= -1.4136E-08  from=  0.0000E+00     to=  5.0000E-05
   spwr= -5.6544E-09
   ireadoff= -1.4064E-12

          ***** job concluded

 *** monte carlo  index =   25


 *** capacitors
    name        eff val



 *** mosfet element parameters
 name           rd eff   rs eff   cdsat    cssat     vto      beta


       MONTE CARLO PARAMETER DEFINITIONS


   iavg= -1.0941E-08  from=  0.0000E+00     to=  5.0000E-05
   spwr= -4.3764E-09
   ireadoff=  6.2000E-13

          ***** job concluded

 *** monte carlo  index =   26


 *** capacitors
    name        eff val



 *** mosfet element parameters
 name           rd eff   rs eff   cdsat    cssat     vto      beta


       MONTE CARLO PARAMETER DEFINITIONS


   iavg= -8.0366E-09  from=  0.0000E+00     to=  5.0000E-05
   spwr= -3.2146E-09
   ireadoff= -9.3264E-13

          ***** job concluded

 *** monte carlo  index =   27


 *** capacitors
    name        eff val



 *** mosfet element parameters
 name           rd eff   rs eff   cdsat    cssat     vto      beta


       MONTE CARLO PARAMETER DEFINITIONS


   iavg= -1.5370E-09  from=  0.0000E+00     to=  5.0000E-05
   spwr= -6.1480E-10
   ireadoff=  5.3632E-12

          ***** job concluded

 *** monte carlo  index =   28


 *** capacitors
    name        eff val



 *** mosfet element parameters
 name           rd eff   rs eff   cdsat    cssat     vto      beta


       MONTE CARLO PARAMETER DEFINITIONS


   iavg= -1.4026E-09  from=  0.0000E+00     to=  5.0000E-05
   spwr= -5.6103E-10
   ireadoff=  1.6657E-13

          ***** job concluded

 *** monte carlo  index =   29


 *** capacitors
    name        eff val



 *** mosfet element parameters
 name           rd eff   rs eff   cdsat    cssat     vto      beta


       MONTE CARLO PARAMETER DEFINITIONS


   iavg= -1.4395E-09  from=  0.0000E+00     to=  5.0000E-05
   spwr= -5.7582E-10
   ireadoff=  1.4573E-13

          ***** job concluded

 *** monte carlo  index =   30


 *** capacitors
    name        eff val



 *** mosfet element parameters
 name           rd eff   rs eff   cdsat    cssat     vto      beta


       MONTE CARLO PARAMETER DEFINITIONS


   iavg= -1.9666E-09  from=  0.0000E+00     to=  5.0000E-05
   spwr= -7.8664E-10
   ireadoff= -1.5574E-13

          ***** job concluded

 *** monte carlo  index =   31


 *** capacitors
    name        eff val



 *** mosfet element parameters
 name           rd eff   rs eff   cdsat    cssat     vto      beta


       MONTE CARLO PARAMETER DEFINITIONS


   iavg= -3.7213E-09  from=  0.0000E+00     to=  5.0000E-05
   spwr= -1.4885E-09
   ireadoff=  9.1787E-13

          ***** job concluded

 *** monte carlo  index =   32


 *** capacitors
    name        eff val



 *** mosfet element parameters
 name           rd eff   rs eff   cdsat    cssat     vto      beta


       MONTE CARLO PARAMETER DEFINITIONS


   iavg= -5.2087E-09  from=  0.0000E+00     to=  5.0000E-05
   spwr= -2.0835E-09
   ireadoff=  2.2122E-13

          ***** job concluded

 *** monte carlo  index =   33


 *** capacitors
    name        eff val



 *** mosfet element parameters
 name           rd eff   rs eff   cdsat    cssat     vto      beta


       MONTE CARLO PARAMETER DEFINITIONS


   iavg= -9.5665E-10  from=  0.0000E+00     to=  5.0000E-05
   spwr= -3.8266E-10
   ireadoff= -1.1584E-14

          ***** job concluded

 *** monte carlo  index =   34


 *** capacitors
    name        eff val



 *** mosfet element parameters
 name           rd eff   rs eff   cdsat    cssat     vto      beta


       MONTE CARLO PARAMETER DEFINITIONS


   iavg= -6.6244E-09  from=  0.0000E+00     to=  5.0000E-05
   spwr= -2.6498E-09
   ireadoff= -6.6894E-14

          ***** job concluded

 *** monte carlo  index =   35


 *** capacitors
    name        eff val



 *** mosfet element parameters
 name           rd eff   rs eff   cdsat    cssat     vto      beta


       MONTE CARLO PARAMETER DEFINITIONS


   iavg= -1.3875E-09  from=  0.0000E+00     to=  5.0000E-05
   spwr= -5.5499E-10
   ireadoff=  2.1828E-13

          ***** job concluded

 *** monte carlo  index =   36


 *** capacitors
    name        eff val



 *** mosfet element parameters
 name           rd eff   rs eff   cdsat    cssat     vto      beta


       MONTE CARLO PARAMETER DEFINITIONS


   iavg= -6.7232E-09  from=  0.0000E+00     to=  5.0000E-05
   spwr= -2.6893E-09
   ireadoff=  3.1645E-13

          ***** job concluded

 *** monte carlo  index =   37


 *** capacitors
    name        eff val



 *** mosfet element parameters
 name           rd eff   rs eff   cdsat    cssat     vto      beta


       MONTE CARLO PARAMETER DEFINITIONS


   iavg= -1.3893E-09  from=  0.0000E+00     to=  5.0000E-05
   spwr= -5.5572E-10
   ireadoff= -4.1464E-13

          ***** job concluded

 *** monte carlo  index =   38


 *** capacitors
    name        eff val



 *** mosfet element parameters
 name           rd eff   rs eff   cdsat    cssat     vto      beta


       MONTE CARLO PARAMETER DEFINITIONS


   iavg= -1.4120E-09  from=  0.0000E+00     to=  5.0000E-05
   spwr= -5.6479E-10
   ireadoff=  5.0724E-13

          ***** job concluded

 *** monte carlo  index =   39


 *** capacitors
    name        eff val



 *** mosfet element parameters
 name           rd eff   rs eff   cdsat    cssat     vto      beta


       MONTE CARLO PARAMETER DEFINITIONS


   iavg= -7.9515E-10  from=  0.0000E+00     to=  5.0000E-05
   spwr= -3.1806E-10
   ireadoff= -9.0618E-13

          ***** job concluded

 *** monte carlo  index =   40


 *** capacitors
    name        eff val



 *** mosfet element parameters
 name           rd eff   rs eff   cdsat    cssat     vto      beta


       MONTE CARLO PARAMETER DEFINITIONS


   iavg= -2.1724E-09  from=  0.0000E+00     to=  5.0000E-05
   spwr= -8.6897E-10
   ireadoff=  2.8115E-13

          ***** job concluded

 *** monte carlo  index =   41


 *** capacitors
    name        eff val



 *** mosfet element parameters
 name           rd eff   rs eff   cdsat    cssat     vto      beta


       MONTE CARLO PARAMETER DEFINITIONS


   iavg= -7.2089E-09  from=  0.0000E+00     to=  5.0000E-05
   spwr= -2.8836E-09
   ireadoff=  4.7480E-13

          ***** job concluded

 *** monte carlo  index =   42


 *** capacitors
    name        eff val



 *** mosfet element parameters
 name           rd eff   rs eff   cdsat    cssat     vto      beta


       MONTE CARLO PARAMETER DEFINITIONS


   iavg= -1.2542E-09  from=  0.0000E+00     to=  5.0000E-05
   spwr= -5.0169E-10
   ireadoff=  1.2226E-13

          ***** job concluded

 *** monte carlo  index =   43


 *** capacitors
    name        eff val



 *** mosfet element parameters
 name           rd eff   rs eff   cdsat    cssat     vto      beta


       MONTE CARLO PARAMETER DEFINITIONS


   iavg= -1.4731E-09  from=  0.0000E+00     to=  5.0000E-05
   spwr= -5.8926E-10
   ireadoff=  1.5449E-12

          ***** job concluded

 *** monte carlo  index =   44


 *** capacitors
    name        eff val



 *** mosfet element parameters
 name           rd eff   rs eff   cdsat    cssat     vto      beta


       MONTE CARLO PARAMETER DEFINITIONS


   iavg= -2.1153E-09  from=  0.0000E+00     to=  5.0000E-05
   spwr= -8.4611E-10
   ireadoff= -6.7012E-13

          ***** job concluded

 *** monte carlo  index =   45


 *** capacitors
    name        eff val



 *** mosfet element parameters
 name           rd eff   rs eff   cdsat    cssat     vto      beta


       MONTE CARLO PARAMETER DEFINITIONS


   iavg= -1.8190E-09  from=  0.0000E+00     to=  5.0000E-05
   spwr= -7.2761E-10
   ireadoff= -1.1243E-13

          ***** job concluded

 *** monte carlo  index =   46


 *** capacitors
    name        eff val



 *** mosfet element parameters
 name           rd eff   rs eff   cdsat    cssat     vto      beta


       MONTE CARLO PARAMETER DEFINITIONS


   iavg= -1.0375E-09  from=  0.0000E+00     to=  5.0000E-05
   spwr= -4.1501E-10
   ireadoff=  2.3308E-13

          ***** job concluded

 *** monte carlo  index =   47


 *** capacitors
    name        eff val



 *** mosfet element parameters
 name           rd eff   rs eff   cdsat    cssat     vto      beta


       MONTE CARLO PARAMETER DEFINITIONS


   iavg= -1.0917E-08  from=  0.0000E+00     to=  5.0000E-05
   spwr= -4.3668E-09
   ireadoff=  5.5273E-13

          ***** job concluded

 *** monte carlo  index =   48


 *** capacitors
    name        eff val



 *** mosfet element parameters
 name           rd eff   rs eff   cdsat    cssat     vto      beta


       MONTE CARLO PARAMETER DEFINITIONS


   iavg= -4.5418E-09  from=  0.0000E+00     to=  5.0000E-05
   spwr= -1.8167E-09
   ireadoff=  1.3468E-12

          ***** job concluded

 *** monte carlo  index =   49


 *** capacitors
    name        eff val



 *** mosfet element parameters
 name           rd eff   rs eff   cdsat    cssat     vto      beta


       MONTE CARLO PARAMETER DEFINITIONS


   iavg= -1.5618E-09  from=  0.0000E+00     to=  5.0000E-05
   spwr= -6.2472E-10
   ireadoff=  3.7031E-12

          ***** job concluded

 *** monte carlo  index =   50


 *** capacitors
    name        eff val



 *** mosfet element parameters
 name           rd eff   rs eff   cdsat    cssat     vto      beta


       MONTE CARLO PARAMETER DEFINITIONS


   iavg= -4.1586E-09  from=  0.0000E+00     to=  5.0000E-05
   spwr= -1.6634E-09
   ireadoff=  3.6016E-13

          ***** job concluded

 *** monte carlo  index =   51


 *** capacitors
    name        eff val



 *** mosfet element parameters
 name           rd eff   rs eff   cdsat    cssat     vto      beta


       MONTE CARLO PARAMETER DEFINITIONS


   iavg= -1.0703E-09  from=  0.0000E+00     to=  5.0000E-05
   spwr= -4.2814E-10
   ireadoff=  4.4618E-12

          ***** job concluded

 *** monte carlo  index =   52


 *** capacitors
    name        eff val



 *** mosfet element parameters
 name           rd eff   rs eff   cdsat    cssat     vto      beta


       MONTE CARLO PARAMETER DEFINITIONS


   iavg= -8.0980E-10  from=  0.0000E+00     to=  5.0000E-05
   spwr= -3.2392E-10
   ireadoff= -1.5655E-13

          ***** job concluded

 *** monte carlo  index =   53


 *** capacitors
    name        eff val



 *** mosfet element parameters
 name           rd eff   rs eff   cdsat    cssat     vto      beta


       MONTE CARLO PARAMETER DEFINITIONS


   iavg= -2.2914E-09  from=  0.0000E+00     to=  5.0000E-05
   spwr= -9.1656E-10
   ireadoff= -9.0937E-14

          ***** job concluded

 *** monte carlo  index =   54


 *** capacitors
    name        eff val



 *** mosfet element parameters
 name           rd eff   rs eff   cdsat    cssat     vto      beta


       MONTE CARLO PARAMETER DEFINITIONS


   iavg= -3.0024E-09  from=  0.0000E+00     to=  5.0000E-05
   spwr= -1.2009E-09
   ireadoff= -6.7927E-13

          ***** job concluded

 *** monte carlo  index =   55


 *** capacitors
    name        eff val



 *** mosfet element parameters
 name           rd eff   rs eff   cdsat    cssat     vto      beta


       MONTE CARLO PARAMETER DEFINITIONS


   iavg= -1.0489E-09  from=  0.0000E+00     to=  5.0000E-05
   spwr= -4.1955E-10
   ireadoff=  3.4490E-12

          ***** job concluded

 *** monte carlo  index =   56


 *** capacitors
    name        eff val



 *** mosfet element parameters
 name           rd eff   rs eff   cdsat    cssat     vto      beta


       MONTE CARLO PARAMETER DEFINITIONS


   iavg= -1.1887E-09  from=  0.0000E+00     to=  5.0000E-05
   spwr= -4.7549E-10
   ireadoff= -5.7891E-13

          ***** job concluded

 *** monte carlo  index =   57


 *** capacitors
    name        eff val



 *** mosfet element parameters
 name           rd eff   rs eff   cdsat    cssat     vto      beta


       MONTE CARLO PARAMETER DEFINITIONS


   iavg= -2.7502E-09  from=  0.0000E+00     to=  5.0000E-05
   spwr= -1.1001E-09
   ireadoff= -4.9729E-13

          ***** job concluded

 *** monte carlo  index =   58


 *** capacitors
    name        eff val



 *** mosfet element parameters
 name           rd eff   rs eff   cdsat    cssat     vto      beta


       MONTE CARLO PARAMETER DEFINITIONS


   iavg= -8.8558E-10  from=  0.0000E+00     to=  5.0000E-05
   spwr= -3.5423E-10
   ireadoff=  1.5980E-14

          ***** job concluded

 *** monte carlo  index =   59


 *** capacitors
    name        eff val



 *** mosfet element parameters
 name           rd eff   rs eff   cdsat    cssat     vto      beta


       MONTE CARLO PARAMETER DEFINITIONS


   iavg= -1.3765E-09  from=  0.0000E+00     to=  5.0000E-05
   spwr= -5.5060E-10
   ireadoff=  2.9620E-13

          ***** job concluded

 *** monte carlo  index =   60


 *** capacitors
    name        eff val



 *** mosfet element parameters
 name           rd eff   rs eff   cdsat    cssat     vto      beta


       MONTE CARLO PARAMETER DEFINITIONS


   iavg= -1.8115E-09  from=  0.0000E+00     to=  5.0000E-05
   spwr= -7.2461E-10
   ireadoff= -2.7637E-14

          ***** job concluded

 *** monte carlo  index =   61


 *** capacitors
    name        eff val



 *** mosfet element parameters
 name           rd eff   rs eff   cdsat    cssat     vto      beta


       MONTE CARLO PARAMETER DEFINITIONS


   iavg= -3.9094E-09  from=  0.0000E+00     to=  5.0000E-05
   spwr= -1.5638E-09
   ireadoff=  1.2251E-13

          ***** job concluded

 *** monte carlo  index =   62


 *** capacitors
    name        eff val



 *** mosfet element parameters
 name           rd eff   rs eff   cdsat    cssat     vto      beta


       MONTE CARLO PARAMETER DEFINITIONS


   iavg= -2.5561E-09  from=  0.0000E+00     to=  5.0000E-05
   spwr= -1.0224E-09
   ireadoff=  2.6779E-13

          ***** job concluded

 *** monte carlo  index =   63


 *** capacitors
    name        eff val



 *** mosfet element parameters
 name           rd eff   rs eff   cdsat    cssat     vto      beta


       MONTE CARLO PARAMETER DEFINITIONS


   iavg= -5.4628E-10  from=  0.0000E+00     to=  5.0000E-05
   spwr= -2.1851E-10
   ireadoff=  3.3671E-13

          ***** job concluded

 *** monte carlo  index =   64


 *** capacitors
    name        eff val



 *** mosfet element parameters
 name           rd eff   rs eff   cdsat    cssat     vto      beta


       MONTE CARLO PARAMETER DEFINITIONS


   iavg= -2.8655E-09  from=  0.0000E+00     to=  5.0000E-05
   spwr= -1.1462E-09
   ireadoff= -1.9577E-13

          ***** job concluded

 *** monte carlo  index =   65


 *** capacitors
    name        eff val



 *** mosfet element parameters
 name           rd eff   rs eff   cdsat    cssat     vto      beta


       MONTE CARLO PARAMETER DEFINITIONS


   iavg= -2.2233E-09  from=  0.0000E+00     to=  5.0000E-05
   spwr= -8.8932E-10
   ireadoff=  3.2596E-13

          ***** job concluded

 *** monte carlo  index =   66


 *** capacitors
    name        eff val



 *** mosfet element parameters
 name           rd eff   rs eff   cdsat    cssat     vto      beta


       MONTE CARLO PARAMETER DEFINITIONS


   iavg= -2.0403E-09  from=  0.0000E+00     to=  5.0000E-05
   spwr= -8.1611E-10
   ireadoff= -1.6143E-13

          ***** job concluded

 *** monte carlo  index =   67


 *** capacitors
    name        eff val



 *** mosfet element parameters
 name           rd eff   rs eff   cdsat    cssat     vto      beta


       MONTE CARLO PARAMETER DEFINITIONS


   iavg= -1.0407E-09  from=  0.0000E+00     to=  5.0000E-05
   spwr= -4.1630E-10
   ireadoff=  6.0543E-13

          ***** job concluded

 *** monte carlo  index =   68


 *** capacitors
    name        eff val



 *** mosfet element parameters
 name           rd eff   rs eff   cdsat    cssat     vto      beta


       MONTE CARLO PARAMETER DEFINITIONS


   iavg= -6.3863E-10  from=  0.0000E+00     to=  5.0000E-05
   spwr= -2.5545E-10
   ireadoff=  5.3388E-13

          ***** job concluded

 *** monte carlo  index =   69


 *** capacitors
    name        eff val



 *** mosfet element parameters
 name           rd eff   rs eff   cdsat    cssat     vto      beta


       MONTE CARLO PARAMETER DEFINITIONS


   iavg= -5.5551E-09  from=  0.0000E+00     to=  5.0000E-05
   spwr= -2.2220E-09
   ireadoff=  2.0134E-13

          ***** job concluded

 *** monte carlo  index =   70


 *** capacitors
    name        eff val



 *** mosfet element parameters
 name           rd eff   rs eff   cdsat    cssat     vto      beta


       MONTE CARLO PARAMETER DEFINITIONS


   iavg= -1.1047E-09  from=  0.0000E+00     to=  5.0000E-05
   spwr= -4.4190E-10
   ireadoff= -2.4628E-13

          ***** job concluded

 *** monte carlo  index =   71


 *** capacitors
    name        eff val



 *** mosfet element parameters
 name           rd eff   rs eff   cdsat    cssat     vto      beta


       MONTE CARLO PARAMETER DEFINITIONS


   iavg= -2.7815E-09  from=  0.0000E+00     to=  5.0000E-05
   spwr= -1.1126E-09
   ireadoff= -1.3534E-13

          ***** job concluded

 *** monte carlo  index =   72


 *** capacitors
    name        eff val



 *** mosfet element parameters
 name           rd eff   rs eff   cdsat    cssat     vto      beta


       MONTE CARLO PARAMETER DEFINITIONS


   iavg= -2.4288E-09  from=  0.0000E+00     to=  5.0000E-05
   spwr= -9.7152E-10
   ireadoff=  3.6936E-13

          ***** job concluded

 *** monte carlo  index =   73


 *** capacitors
    name        eff val



 *** mosfet element parameters
 name           rd eff   rs eff   cdsat    cssat     vto      beta


       MONTE CARLO PARAMETER DEFINITIONS


   iavg= -1.3974E-09  from=  0.0000E+00     to=  5.0000E-05
   spwr= -5.5896E-10
   ireadoff=  5.5020E-13

          ***** job concluded

 *** monte carlo  index =   74


 *** capacitors
    name        eff val



 *** mosfet element parameters
 name           rd eff   rs eff   cdsat    cssat     vto      beta


       MONTE CARLO PARAMETER DEFINITIONS


   iavg= -1.1165E-09  from=  0.0000E+00     to=  5.0000E-05
   spwr= -4.4661E-10
   ireadoff= -3.2299E-13

          ***** job concluded

 *** monte carlo  index =   75


 *** capacitors
    name        eff val



 *** mosfet element parameters
 name           rd eff   rs eff   cdsat    cssat     vto      beta


       MONTE CARLO PARAMETER DEFINITIONS


   iavg= -2.4397E-09  from=  0.0000E+00     to=  5.0000E-05
   spwr= -9.7588E-10
   ireadoff= -2.1981E-13

          ***** job concluded

 *** monte carlo  index =   76


 *** capacitors
    name        eff val



 *** mosfet element parameters
 name           rd eff   rs eff   cdsat    cssat     vto      beta


       MONTE CARLO PARAMETER DEFINITIONS


   iavg= -8.9390E-09  from=  0.0000E+00     to=  5.0000E-05
   spwr= -3.5756E-09
   ireadoff= -1.8219E-13

          ***** job concluded

 *** monte carlo  index =   77


 *** capacitors
    name        eff val



 *** mosfet element parameters
 name           rd eff   rs eff   cdsat    cssat     vto      beta


       MONTE CARLO PARAMETER DEFINITIONS


   iavg= -6.2916E-09  from=  0.0000E+00     to=  5.0000E-05
   spwr= -2.5166E-09
   ireadoff=  1.9058E-13

          ***** job concluded

 *** monte carlo  index =   78


 *** capacitors
    name        eff val



 *** mosfet element parameters
 name           rd eff   rs eff   cdsat    cssat     vto      beta


       MONTE CARLO PARAMETER DEFINITIONS


   iavg= -2.7653E-09  from=  0.0000E+00     to=  5.0000E-05
   spwr= -1.1061E-09
   ireadoff= -1.1094E-12

          ***** job concluded

 *** monte carlo  index =   79


 *** capacitors
    name        eff val



 *** mosfet element parameters
 name           rd eff   rs eff   cdsat    cssat     vto      beta


       MONTE CARLO PARAMETER DEFINITIONS


   iavg= -3.1198E-09  from=  0.0000E+00     to=  5.0000E-05
   spwr= -1.2479E-09
   ireadoff=  7.7741E-13

          ***** job concluded

 *** monte carlo  index =   80


 *** capacitors
    name        eff val



 *** mosfet element parameters
 name           rd eff   rs eff   cdsat    cssat     vto      beta


       MONTE CARLO PARAMETER DEFINITIONS


   iavg= -5.5483E-09  from=  0.0000E+00     to=  5.0000E-05
   spwr= -2.2193E-09
   ireadoff=  5.3244E-13

          ***** job concluded

 *** monte carlo  index =   81


 *** capacitors
    name        eff val



 *** mosfet element parameters
 name           rd eff   rs eff   cdsat    cssat     vto      beta


       MONTE CARLO PARAMETER DEFINITIONS


   iavg= -6.5183E-10  from=  0.0000E+00     to=  5.0000E-05
   spwr= -2.6073E-10
   ireadoff=  2.2040E-13

          ***** job concluded

 *** monte carlo  index =   82


 *** capacitors
    name        eff val



 *** mosfet element parameters
 name           rd eff   rs eff   cdsat    cssat     vto      beta


       MONTE CARLO PARAMETER DEFINITIONS


   iavg= -1.2606E-09  from=  0.0000E+00     to=  5.0000E-05
   spwr= -5.0424E-10
   ireadoff=  1.3367E-13

          ***** job concluded

 *** monte carlo  index =   83


 *** capacitors
    name        eff val



 *** mosfet element parameters
 name           rd eff   rs eff   cdsat    cssat     vto      beta


       MONTE CARLO PARAMETER DEFINITIONS


   iavg= -2.3217E-09  from=  0.0000E+00     to=  5.0000E-05
   spwr= -9.2868E-10
   ireadoff= -1.6646E-13

          ***** job concluded

 *** monte carlo  index =   84


 *** capacitors
    name        eff val



 *** mosfet element parameters
 name           rd eff   rs eff   cdsat    cssat     vto      beta


       MONTE CARLO PARAMETER DEFINITIONS


   iavg= -2.5958E-09  from=  0.0000E+00     to=  5.0000E-05
   spwr= -1.0383E-09
   ireadoff=  2.4544E-13

          ***** job concluded

 *** monte carlo  index =   85


 *** capacitors
    name        eff val



 *** mosfet element parameters
 name           rd eff   rs eff   cdsat    cssat     vto      beta


       MONTE CARLO PARAMETER DEFINITIONS


   iavg= -7.5603E-10  from=  0.0000E+00     to=  5.0000E-05
   spwr= -3.0241E-10
   ireadoff=  3.9525E-13

          ***** job concluded

 *** monte carlo  index =   86


 *** capacitors
    name        eff val



 *** mosfet element parameters
 name           rd eff   rs eff   cdsat    cssat     vto      beta


       MONTE CARLO PARAMETER DEFINITIONS


   iavg= -3.8634E-09  from=  0.0000E+00     to=  5.0000E-05
   spwr= -1.5454E-09
   ireadoff= -1.2946E-12

          ***** job concluded

 *** monte carlo  index =   87


 *** capacitors
    name        eff val



 *** mosfet element parameters
 name           rd eff   rs eff   cdsat    cssat     vto      beta


       MONTE CARLO PARAMETER DEFINITIONS


   iavg= -2.2090E-09  from=  0.0000E+00     to=  5.0000E-05
   spwr= -8.8359E-10
   ireadoff=  2.5229E-13

          ***** job concluded

 *** monte carlo  index =   88


 *** capacitors
    name        eff val



 *** mosfet element parameters
 name           rd eff   rs eff   cdsat    cssat     vto      beta


       MONTE CARLO PARAMETER DEFINITIONS


   iavg= -2.7055E-09  from=  0.0000E+00     to=  5.0000E-05
   spwr= -1.0822E-09
   ireadoff=  3.0438E-13

          ***** job concluded

 *** monte carlo  index =   89


 *** capacitors
    name        eff val



 *** mosfet element parameters
 name           rd eff   rs eff   cdsat    cssat     vto      beta


       MONTE CARLO PARAMETER DEFINITIONS


   iavg= -2.5279E-09  from=  0.0000E+00     to=  5.0000E-05
   spwr= -1.0112E-09
   ireadoff=  3.4398E-13

          ***** job concluded

 *** monte carlo  index =   90


 *** capacitors
    name        eff val



 *** mosfet element parameters
 name           rd eff   rs eff   cdsat    cssat     vto      beta


       MONTE CARLO PARAMETER DEFINITIONS


   iavg= -5.5586E-10  from=  0.0000E+00     to=  5.0000E-05
   spwr= -2.2234E-10
   ireadoff=  5.9290E-12

          ***** job concluded

 *** monte carlo  index =   91


 *** capacitors
    name        eff val



 *** mosfet element parameters
 name           rd eff   rs eff   cdsat    cssat     vto      beta


       MONTE CARLO PARAMETER DEFINITIONS


   iavg= -1.1255E-09  from=  0.0000E+00     to=  5.0000E-05
   spwr= -4.5018E-10
   ireadoff=  5.4019E-13

          ***** job concluded

 *** monte carlo  index =   92


 *** capacitors
    name        eff val



 *** mosfet element parameters
 name           rd eff   rs eff   cdsat    cssat     vto      beta


       MONTE CARLO PARAMETER DEFINITIONS


   iavg= -1.0876E-09  from=  0.0000E+00     to=  5.0000E-05
   spwr= -4.3503E-10
   ireadoff=  6.7104E-13

          ***** job concluded

 *** monte carlo  index =   93


 *** capacitors
    name        eff val



 *** mosfet element parameters
 name           rd eff   rs eff   cdsat    cssat     vto      beta


       MONTE CARLO PARAMETER DEFINITIONS


   iavg= -1.9499E-09  from=  0.0000E+00     to=  5.0000E-05
   spwr= -7.7997E-10
   ireadoff= -4.6216E-13

          ***** job concluded

 *** monte carlo  index =   94


 *** capacitors
    name        eff val



 *** mosfet element parameters
 name           rd eff   rs eff   cdsat    cssat     vto      beta


       MONTE CARLO PARAMETER DEFINITIONS


   iavg= -1.6916E-09  from=  0.0000E+00     to=  5.0000E-05
   spwr= -6.7665E-10
   ireadoff= -4.6835E-13

          ***** job concluded

 *** monte carlo  index =   95


 *** capacitors
    name        eff val



 *** mosfet element parameters
 name           rd eff   rs eff   cdsat    cssat     vto      beta


       MONTE CARLO PARAMETER DEFINITIONS


   iavg= -2.4080E-09  from=  0.0000E+00     to=  5.0000E-05
   spwr= -9.6318E-10
   ireadoff= -1.7169E-13

          ***** job concluded

 *** monte carlo  index =   96


 *** capacitors
    name        eff val



 *** mosfet element parameters
 name           rd eff   rs eff   cdsat    cssat     vto      beta


       MONTE CARLO PARAMETER DEFINITIONS


   iavg= -1.1897E-09  from=  0.0000E+00     to=  5.0000E-05
   spwr= -4.7588E-10
   ireadoff=  5.5041E-12

          ***** job concluded

 *** monte carlo  index =   97


 *** capacitors
    name        eff val



 *** mosfet element parameters
 name           rd eff   rs eff   cdsat    cssat     vto      beta


       MONTE CARLO PARAMETER DEFINITIONS


   iavg= -2.4080E-09  from=  0.0000E+00     to=  5.0000E-05
   spwr= -9.6320E-10
   ireadoff= -4.2930E-13

          ***** job concluded

 *** monte carlo  index =   98


 *** capacitors
    name        eff val



 *** mosfet element parameters
 name           rd eff   rs eff   cdsat    cssat     vto      beta


       MONTE CARLO PARAMETER DEFINITIONS


   iavg= -9.9456E-10  from=  0.0000E+00     to=  5.0000E-05
   spwr= -3.9782E-10
   ireadoff=  1.4940E-12

          ***** job concluded

 *** monte carlo  index =   99


 *** capacitors
    name        eff val



 *** mosfet element parameters
 name           rd eff   rs eff   cdsat    cssat     vto      beta


       MONTE CARLO PARAMETER DEFINITIONS


   iavg= -7.5424E-10  from=  0.0000E+00     to=  5.0000E-05
   spwr= -3.0170E-10
   ireadoff=  4.9731E-15

          ***** job concluded

 *** monte carlo  index =  100


 *** capacitors
    name        eff val



 *** mosfet element parameters
 name           rd eff   rs eff   cdsat    cssat     vto      beta


       MONTE CARLO PARAMETER DEFINITIONS


   iavg= -1.0245E-09  from=  0.0000E+00     to=  5.0000E-05
   spwr= -4.0978E-10
   ireadoff= -2.0082E-13

          ***** job concluded

 *** monte carlo  index =  101


 *** capacitors
    name        eff val



 *** mosfet element parameters
 name           rd eff   rs eff   cdsat    cssat     vto      beta


       MONTE CARLO PARAMETER DEFINITIONS


   iavg= -1.0024E-09  from=  0.0000E+00     to=  5.0000E-05
   spwr= -4.0096E-10
   ireadoff= -2.3361E-13

          ***** job concluded

 *** monte carlo  index =  102


 *** capacitors
    name        eff val



 *** mosfet element parameters
 name           rd eff   rs eff   cdsat    cssat     vto      beta


       MONTE CARLO PARAMETER DEFINITIONS


   iavg= -3.8306E-09  from=  0.0000E+00     to=  5.0000E-05
   spwr= -1.5322E-09
   ireadoff=  2.6841E-13

          ***** job concluded

 *** monte carlo  index =  103


 *** capacitors
    name        eff val



 *** mosfet element parameters
 name           rd eff   rs eff   cdsat    cssat     vto      beta


       MONTE CARLO PARAMETER DEFINITIONS


   iavg= -1.7385E-09  from=  0.0000E+00     to=  5.0000E-05
   spwr= -6.9539E-10
   ireadoff= -2.0055E-13

          ***** job concluded

 *** monte carlo  index =  104


 *** capacitors
    name        eff val



 *** mosfet element parameters
 name           rd eff   rs eff   cdsat    cssat     vto      beta


       MONTE CARLO PARAMETER DEFINITIONS


   iavg= -1.0643E-09  from=  0.0000E+00     to=  5.0000E-05
   spwr= -4.2573E-10
   ireadoff=  1.1163E-12

          ***** job concluded

 *** monte carlo  index =  105


 *** capacitors
    name        eff val



 *** mosfet element parameters
 name           rd eff   rs eff   cdsat    cssat     vto      beta


       MONTE CARLO PARAMETER DEFINITIONS


   iavg= -2.1634E-09  from=  0.0000E+00     to=  5.0000E-05
   spwr= -8.6535E-10
   ireadoff=  4.8038E-13

          ***** job concluded

 *** monte carlo  index =  106


 *** capacitors
    name        eff val



 *** mosfet element parameters
 name           rd eff   rs eff   cdsat    cssat     vto      beta


       MONTE CARLO PARAMETER DEFINITIONS


   iavg= -6.5885E-10  from=  0.0000E+00     to=  5.0000E-05
   spwr= -2.6354E-10
   ireadoff= -2.7258E-13

          ***** job concluded

 *** monte carlo  index =  107


 *** capacitors
    name        eff val



 *** mosfet element parameters
 name           rd eff   rs eff   cdsat    cssat     vto      beta


       MONTE CARLO PARAMETER DEFINITIONS


   iavg= -1.2092E-09  from=  0.0000E+00     to=  5.0000E-05
   spwr= -4.8370E-10
   ireadoff=  2.7059E-13

          ***** job concluded

 *** monte carlo  index =  108


 *** capacitors
    name        eff val



 *** mosfet element parameters
 name           rd eff   rs eff   cdsat    cssat     vto      beta


       MONTE CARLO PARAMETER DEFINITIONS


   iavg= -1.0096E-09  from=  0.0000E+00     to=  5.0000E-05
   spwr= -4.0384E-10
   ireadoff=  2.0336E-12

          ***** job concluded

 *** monte carlo  index =  109


 *** capacitors
    name        eff val



 *** mosfet element parameters
 name           rd eff   rs eff   cdsat    cssat     vto      beta


       MONTE CARLO PARAMETER DEFINITIONS


   iavg= -5.6749E-10  from=  0.0000E+00     to=  5.0000E-05
   spwr= -2.2700E-10
   ireadoff=  5.4314E-13

          ***** job concluded

 *** monte carlo  index =  110


 *** capacitors
    name        eff val



 *** mosfet element parameters
 name           rd eff   rs eff   cdsat    cssat     vto      beta


       MONTE CARLO PARAMETER DEFINITIONS


   iavg= -3.7779E-09  from=  0.0000E+00     to=  5.0000E-05
   spwr= -1.5111E-09
   ireadoff= -2.9286E-13

          ***** job concluded

 *** monte carlo  index =  111


 *** capacitors
    name        eff val



 *** mosfet element parameters
 name           rd eff   rs eff   cdsat    cssat     vto      beta


       MONTE CARLO PARAMETER DEFINITIONS


   iavg= -1.6010E-08  from=  0.0000E+00     to=  5.0000E-05
   spwr= -6.4040E-09
   ireadoff= -4.0466E-13

          ***** job concluded

 *** monte carlo  index =  112


 *** capacitors
    name        eff val



 *** mosfet element parameters
 name           rd eff   rs eff   cdsat    cssat     vto      beta


       MONTE CARLO PARAMETER DEFINITIONS


   iavg= -2.7797E-08  from=  0.0000E+00     to=  5.0000E-05
   spwr= -1.1119E-08
   ireadoff= -5.4145E-13

          ***** job concluded

 *** monte carlo  index =  113


 *** capacitors
    name        eff val



 *** mosfet element parameters
 name           rd eff   rs eff   cdsat    cssat     vto      beta


       MONTE CARLO PARAMETER DEFINITIONS


   iavg= -1.8069E-09  from=  0.0000E+00     to=  5.0000E-05
   spwr= -7.2276E-10
   ireadoff=  3.9521E-13

          ***** job concluded

 *** monte carlo  index =  114


 *** capacitors
    name        eff val



 *** mosfet element parameters
 name           rd eff   rs eff   cdsat    cssat     vto      beta


       MONTE CARLO PARAMETER DEFINITIONS


   iavg= -1.7898E-09  from=  0.0000E+00     to=  5.0000E-05
   spwr= -7.1594E-10
   ireadoff= -7.3023E-13

          ***** job concluded

 *** monte carlo  index =  115


 *** capacitors
    name        eff val



 *** mosfet element parameters
 name           rd eff   rs eff   cdsat    cssat     vto      beta


       MONTE CARLO PARAMETER DEFINITIONS


   iavg= -1.0162E-09  from=  0.0000E+00     to=  5.0000E-05
   spwr= -4.0649E-10
   ireadoff=  1.3912E-13

          ***** job concluded

 *** monte carlo  index =  116


 *** capacitors
    name        eff val



 *** mosfet element parameters
 name           rd eff   rs eff   cdsat    cssat     vto      beta


       MONTE CARLO PARAMETER DEFINITIONS


   iavg= -5.4043E-09  from=  0.0000E+00     to=  5.0000E-05
   spwr= -2.1617E-09
   ireadoff= -1.6837E-13

          ***** job concluded

 *** monte carlo  index =  117


 *** capacitors
    name        eff val



 *** mosfet element parameters
 name           rd eff   rs eff   cdsat    cssat     vto      beta


       MONTE CARLO PARAMETER DEFINITIONS


   iavg= -2.5609E-09  from=  0.0000E+00     to=  5.0000E-05
   spwr= -1.0244E-09
   ireadoff=  1.2028E-12

          ***** job concluded

 *** monte carlo  index =  118


 *** capacitors
    name        eff val



 *** mosfet element parameters
 name           rd eff   rs eff   cdsat    cssat     vto      beta


       MONTE CARLO PARAMETER DEFINITIONS


   iavg= -6.3154E-09  from=  0.0000E+00     to=  5.0000E-05
   spwr= -2.5261E-09
   ireadoff= -2.4894E-13

          ***** job concluded

 *** monte carlo  index =  119


 *** capacitors
    name        eff val



 *** mosfet element parameters
 name           rd eff   rs eff   cdsat    cssat     vto      beta


       MONTE CARLO PARAMETER DEFINITIONS


   iavg= -1.3708E-09  from=  0.0000E+00     to=  5.0000E-05
   spwr= -5.4831E-10
   ireadoff=  2.8363E-13

          ***** job concluded

 *** monte carlo  index =  120


 *** capacitors
    name        eff val



 *** mosfet element parameters
 name           rd eff   rs eff   cdsat    cssat     vto      beta


       MONTE CARLO PARAMETER DEFINITIONS


   iavg= -3.9367E-08  from=  0.0000E+00     to=  5.0000E-05
   spwr= -1.5747E-08
   ireadoff= -3.1101E-13

          ***** job concluded

 *** monte carlo  index =  121


 *** capacitors
    name        eff val



 *** mosfet element parameters
 name           rd eff   rs eff   cdsat    cssat     vto      beta


       MONTE CARLO PARAMETER DEFINITIONS


   iavg= -3.8085E-09  from=  0.0000E+00     to=  5.0000E-05
   spwr= -1.5234E-09
   ireadoff=  2.1787E-13

          ***** job concluded

 *** monte carlo  index =  122


 *** capacitors
    name        eff val



 *** mosfet element parameters
 name           rd eff   rs eff   cdsat    cssat     vto      beta


       MONTE CARLO PARAMETER DEFINITIONS


   iavg= -6.7386E-10  from=  0.0000E+00     to=  5.0000E-05
   spwr= -2.6954E-10
   ireadoff= -4.1989E-15

          ***** job concluded

 *** monte carlo  index =  123


 *** capacitors
    name        eff val



 *** mosfet element parameters
 name           rd eff   rs eff   cdsat    cssat     vto      beta


       MONTE CARLO PARAMETER DEFINITIONS


   iavg= -8.7467E-09  from=  0.0000E+00     to=  5.0000E-05
   spwr= -3.4987E-09
   ireadoff=  1.7273E-13

          ***** job concluded

 *** monte carlo  index =  124


 *** capacitors
    name        eff val



 *** mosfet element parameters
 name           rd eff   rs eff   cdsat    cssat     vto      beta


       MONTE CARLO PARAMETER DEFINITIONS


   iavg= -1.2947E-09  from=  0.0000E+00     to=  5.0000E-05
   spwr= -5.1789E-10
   ireadoff=  1.5668E-13

          ***** job concluded

 *** monte carlo  index =  125


 *** capacitors
    name        eff val



 *** mosfet element parameters
 name           rd eff   rs eff   cdsat    cssat     vto      beta


       MONTE CARLO PARAMETER DEFINITIONS


   iavg= -5.7368E-10  from=  0.0000E+00     to=  5.0000E-05
   spwr= -2.2947E-10
   ireadoff=  1.6667E-13

          ***** job concluded

 *** monte carlo  index =  126


 *** capacitors
    name        eff val



 *** mosfet element parameters
 name           rd eff   rs eff   cdsat    cssat     vto      beta


       MONTE CARLO PARAMETER DEFINITIONS


   iavg= -1.4432E-09  from=  0.0000E+00     to=  5.0000E-05
   spwr= -5.7726E-10
   ireadoff=  2.6897E-13

          ***** job concluded

 *** monte carlo  index =  127


 *** capacitors
    name        eff val



 *** mosfet element parameters
 name           rd eff   rs eff   cdsat    cssat     vto      beta


       MONTE CARLO PARAMETER DEFINITIONS


   iavg= -3.4539E-09  from=  0.0000E+00     to=  5.0000E-05
   spwr= -1.3816E-09
   ireadoff=  2.1086E-13

          ***** job concluded

 *** monte carlo  index =  128


 *** capacitors
    name        eff val



 *** mosfet element parameters
 name           rd eff   rs eff   cdsat    cssat     vto      beta


       MONTE CARLO PARAMETER DEFINITIONS


   iavg= -8.1570E-09  from=  0.0000E+00     to=  5.0000E-05
   spwr= -3.2628E-09
   ireadoff=  6.2398E-13

          ***** job concluded

 *** monte carlo  index =  129


 *** capacitors
    name        eff val



 *** mosfet element parameters
 name           rd eff   rs eff   cdsat    cssat     vto      beta


       MONTE CARLO PARAMETER DEFINITIONS


   iavg= -4.5037E-09  from=  0.0000E+00     to=  5.0000E-05
   spwr= -1.8015E-09
   ireadoff= -1.6807E-12

          ***** job concluded

 *** monte carlo  index =  130


 *** capacitors
    name        eff val



 *** mosfet element parameters
 name           rd eff   rs eff   cdsat    cssat     vto      beta


       MONTE CARLO PARAMETER DEFINITIONS


   iavg= -5.3587E-09  from=  0.0000E+00     to=  5.0000E-05
   spwr= -2.1435E-09
   ireadoff= -1.2144E-12

          ***** job concluded

 *** monte carlo  index =  131


 *** capacitors
    name        eff val



 *** mosfet element parameters
 name           rd eff   rs eff   cdsat    cssat     vto      beta


       MONTE CARLO PARAMETER DEFINITIONS


   iavg= -3.8284E-09  from=  0.0000E+00     to=  5.0000E-05
   spwr= -1.5314E-09
   ireadoff= -7.6590E-13

          ***** job concluded

 *** monte carlo  index =  132


 *** capacitors
    name        eff val



 *** mosfet element parameters
 name           rd eff   rs eff   cdsat    cssat     vto      beta


       MONTE CARLO PARAMETER DEFINITIONS


   iavg= -1.3580E-09  from=  0.0000E+00     to=  5.0000E-05
   spwr= -5.4321E-10
   ireadoff= -8.9635E-14

          ***** job concluded

 *** monte carlo  index =  133


 *** capacitors
    name        eff val



 *** mosfet element parameters
 name           rd eff   rs eff   cdsat    cssat     vto      beta


       MONTE CARLO PARAMETER DEFINITIONS


   iavg= -6.6327E-10  from=  0.0000E+00     to=  5.0000E-05
   spwr= -2.6531E-10
   ireadoff= -2.8339E-13

          ***** job concluded

 *** monte carlo  index =  134


 *** capacitors
    name        eff val



 *** mosfet element parameters
 name           rd eff   rs eff   cdsat    cssat     vto      beta


       MONTE CARLO PARAMETER DEFINITIONS


   iavg= -1.6634E-09  from=  0.0000E+00     to=  5.0000E-05
   spwr= -6.6535E-10
   ireadoff= -3.6815E-13

          ***** job concluded

 *** monte carlo  index =  135


 *** capacitors
    name        eff val



 *** mosfet element parameters
 name           rd eff   rs eff   cdsat    cssat     vto      beta


       MONTE CARLO PARAMETER DEFINITIONS


   iavg= -9.2431E-10  from=  0.0000E+00     to=  5.0000E-05
   spwr= -3.6972E-10
   ireadoff=  2.3875E-13

          ***** job concluded

 *** monte carlo  index =  136


 *** capacitors
    name        eff val



 *** mosfet element parameters
 name           rd eff   rs eff   cdsat    cssat     vto      beta


       MONTE CARLO PARAMETER DEFINITIONS


   iavg= -6.8690E-10  from=  0.0000E+00     to=  5.0000E-05
   spwr= -2.7476E-10
   ireadoff=  1.3630E-13

          ***** job concluded

 *** monte carlo  index =  137


 *** capacitors
    name        eff val



 *** mosfet element parameters
 name           rd eff   rs eff   cdsat    cssat     vto      beta


       MONTE CARLO PARAMETER DEFINITIONS


   iavg= -5.1214E-09  from=  0.0000E+00     to=  5.0000E-05
   spwr= -2.0486E-09
   ireadoff=  1.5393E-13

          ***** job concluded

 *** monte carlo  index =  138


 *** capacitors
    name        eff val



 *** mosfet element parameters
 name           rd eff   rs eff   cdsat    cssat     vto      beta


       MONTE CARLO PARAMETER DEFINITIONS


   iavg= -1.6156E-09  from=  0.0000E+00     to=  5.0000E-05
   spwr= -6.4623E-10
   ireadoff=  1.1515E-13

          ***** job concluded

 *** monte carlo  index =  139


 *** capacitors
    name        eff val



 *** mosfet element parameters
 name           rd eff   rs eff   cdsat    cssat     vto      beta


       MONTE CARLO PARAMETER DEFINITIONS


   iavg= -1.3960E-09  from=  0.0000E+00     to=  5.0000E-05
   spwr= -5.5838E-10
   ireadoff=  2.5363E-14

          ***** job concluded

 *** monte carlo  index =  140


 *** capacitors
    name        eff val



 *** mosfet element parameters
 name           rd eff   rs eff   cdsat    cssat     vto      beta


       MONTE CARLO PARAMETER DEFINITIONS


   iavg= -8.5839E-10  from=  0.0000E+00     to=  5.0000E-05
   spwr= -3.4336E-10
   ireadoff=  1.4775E-13

          ***** job concluded

 *** monte carlo  index =  141


 *** capacitors
    name        eff val



 *** mosfet element parameters
 name           rd eff   rs eff   cdsat    cssat     vto      beta


       MONTE CARLO PARAMETER DEFINITIONS


   iavg= -1.2337E-09  from=  0.0000E+00     to=  5.0000E-05
   spwr= -4.9348E-10
   ireadoff=  5.4119E-13

          ***** job concluded

 *** monte carlo  index =  142


 *** capacitors
    name        eff val



 *** mosfet element parameters
 name           rd eff   rs eff   cdsat    cssat     vto      beta


       MONTE CARLO PARAMETER DEFINITIONS


   iavg= -1.6821E-09  from=  0.0000E+00     to=  5.0000E-05
   spwr= -6.7283E-10
   ireadoff=  1.0016E-11

          ***** job concluded

 *** monte carlo  index =  143


 *** capacitors
    name        eff val



 *** mosfet element parameters
 name           rd eff   rs eff   cdsat    cssat     vto      beta


       MONTE CARLO PARAMETER DEFINITIONS


   iavg= -5.5405E-09  from=  0.0000E+00     to=  5.0000E-05
   spwr= -2.2162E-09
   ireadoff=  3.3564E-13

          ***** job concluded

 *** monte carlo  index =  144


 *** capacitors
    name        eff val



 *** mosfet element parameters
 name           rd eff   rs eff   cdsat    cssat     vto      beta


       MONTE CARLO PARAMETER DEFINITIONS


   iavg= -3.6914E-09  from=  0.0000E+00     to=  5.0000E-05
   spwr= -1.4766E-09
   ireadoff= -1.7177E-14

          ***** job concluded

 *** monte carlo  index =  145


 *** capacitors
    name        eff val



 *** mosfet element parameters
 name           rd eff   rs eff   cdsat    cssat     vto      beta


       MONTE CARLO PARAMETER DEFINITIONS


   iavg= -5.3169E-10  from=  0.0000E+00     to=  5.0000E-05
   spwr= -2.1268E-10
   ireadoff=  4.1330E-13

          ***** job concluded

 *** monte carlo  index =  146


 *** capacitors
    name        eff val



 *** mosfet element parameters
 name           rd eff   rs eff   cdsat    cssat     vto      beta


       MONTE CARLO PARAMETER DEFINITIONS


   iavg= -1.2826E-09  from=  0.0000E+00     to=  5.0000E-05
   spwr= -5.1304E-10
   ireadoff= -1.7460E-13

          ***** job concluded

 *** monte carlo  index =  147


 *** capacitors
    name        eff val



 *** mosfet element parameters
 name           rd eff   rs eff   cdsat    cssat     vto      beta


       MONTE CARLO PARAMETER DEFINITIONS


   iavg= -7.9982E-09  from=  0.0000E+00     to=  5.0000E-05
   spwr= -3.1993E-09
   ireadoff=  2.2791E-13

          ***** job concluded

 *** monte carlo  index =  148


 *** capacitors
    name        eff val



 *** mosfet element parameters
 name           rd eff   rs eff   cdsat    cssat     vto      beta


       MONTE CARLO PARAMETER DEFINITIONS


   iavg= -2.2241E-09  from=  0.0000E+00     to=  5.0000E-05
   spwr= -8.8965E-10
   ireadoff= -2.0182E-12

          ***** job concluded

 *** monte carlo  index =  149


 *** capacitors
    name        eff val



 *** mosfet element parameters
 name           rd eff   rs eff   cdsat    cssat     vto      beta


       MONTE CARLO PARAMETER DEFINITIONS


   iavg= -4.0598E-08  from=  0.0000E+00     to=  5.0000E-05
   spwr= -1.6239E-08
   ireadoff= -1.3366E-14

          ***** job concluded

 *** monte carlo  index =  150


 *** capacitors
    name        eff val



 *** mosfet element parameters
 name           rd eff   rs eff   cdsat    cssat     vto      beta


       MONTE CARLO PARAMETER DEFINITIONS


   iavg= -1.5567E-09  from=  0.0000E+00     to=  5.0000E-05
   spwr= -6.2269E-10
   ireadoff= -1.5982E-12

          ***** job concluded

 *** monte carlo  index =  151


 *** capacitors
    name        eff val



 *** mosfet element parameters
 name           rd eff   rs eff   cdsat    cssat     vto      beta


       MONTE CARLO PARAMETER DEFINITIONS


   iavg= -1.8186E-09  from=  0.0000E+00     to=  5.0000E-05
   spwr= -7.2746E-10
   ireadoff= -1.0624E-13

          ***** job concluded

 *** monte carlo  index =  152


 *** capacitors
    name        eff val



 *** mosfet element parameters
 name           rd eff   rs eff   cdsat    cssat     vto      beta


       MONTE CARLO PARAMETER DEFINITIONS


   iavg= -1.5783E-09  from=  0.0000E+00     to=  5.0000E-05
   spwr= -6.3130E-10
   ireadoff= -3.1383E-13

          ***** job concluded

 *** monte carlo  index =  153


 *** capacitors
    name        eff val



 *** mosfet element parameters
 name           rd eff   rs eff   cdsat    cssat     vto      beta


       MONTE CARLO PARAMETER DEFINITIONS


   iavg= -1.9579E-09  from=  0.0000E+00     to=  5.0000E-05
   spwr= -7.8316E-10
   ireadoff= -9.5408E-15

          ***** job concluded

 *** monte carlo  index =  154


 *** capacitors
    name        eff val



 *** mosfet element parameters
 name           rd eff   rs eff   cdsat    cssat     vto      beta


       MONTE CARLO PARAMETER DEFINITIONS


   iavg= -1.9252E-09  from=  0.0000E+00     to=  5.0000E-05
   spwr= -7.7009E-10
   ireadoff= -9.1102E-14

          ***** job concluded

 *** monte carlo  index =  155


 *** capacitors
    name        eff val



 *** mosfet element parameters
 name           rd eff   rs eff   cdsat    cssat     vto      beta


       MONTE CARLO PARAMETER DEFINITIONS


   iavg= -1.0349E-09  from=  0.0000E+00     to=  5.0000E-05
   spwr= -4.1395E-10
   ireadoff=  1.4006E-13

          ***** job concluded

 *** monte carlo  index =  156


 *** capacitors
    name        eff val



 *** mosfet element parameters
 name           rd eff   rs eff   cdsat    cssat     vto      beta


       MONTE CARLO PARAMETER DEFINITIONS


   iavg= -9.0390E-09  from=  0.0000E+00     to=  5.0000E-05
   spwr= -3.6156E-09
   ireadoff=  7.9695E-13

          ***** job concluded

 *** monte carlo  index =  157


 *** capacitors
    name        eff val



 *** mosfet element parameters
 name           rd eff   rs eff   cdsat    cssat     vto      beta


       MONTE CARLO PARAMETER DEFINITIONS


   iavg= -1.2631E-09  from=  0.0000E+00     to=  5.0000E-05
   spwr= -5.0523E-10
   ireadoff=  1.8600E-12

          ***** job concluded

 *** monte carlo  index =  158


 *** capacitors
    name        eff val



 *** mosfet element parameters
 name           rd eff   rs eff   cdsat    cssat     vto      beta


       MONTE CARLO PARAMETER DEFINITIONS


   iavg= -3.1446E-09  from=  0.0000E+00     to=  5.0000E-05
   spwr= -1.2579E-09
   ireadoff= -1.0076E-12

          ***** job concluded

 *** monte carlo  index =  159


 *** capacitors
    name        eff val



 *** mosfet element parameters
 name           rd eff   rs eff   cdsat    cssat     vto      beta


       MONTE CARLO PARAMETER DEFINITIONS


   iavg= -1.2239E-09  from=  0.0000E+00     to=  5.0000E-05
   spwr= -4.8957E-10
   ireadoff=  1.0025E-12

          ***** job concluded

 *** monte carlo  index =  160


 *** capacitors
    name        eff val



 *** mosfet element parameters
 name           rd eff   rs eff   cdsat    cssat     vto      beta


       MONTE CARLO PARAMETER DEFINITIONS


   iavg= -1.3163E-09  from=  0.0000E+00     to=  5.0000E-05
   spwr= -5.2653E-10
   ireadoff=  3.9614E-13

          ***** job concluded

 *** monte carlo  index =  161


 *** capacitors
    name        eff val



 *** mosfet element parameters
 name           rd eff   rs eff   cdsat    cssat     vto      beta


       MONTE CARLO PARAMETER DEFINITIONS


   iavg= -2.2307E-09  from=  0.0000E+00     to=  5.0000E-05
   spwr= -8.9229E-10
   ireadoff=  2.6481E-12

          ***** job concluded

 *** monte carlo  index =  162


 *** capacitors
    name        eff val



 *** mosfet element parameters
 name           rd eff   rs eff   cdsat    cssat     vto      beta


       MONTE CARLO PARAMETER DEFINITIONS


   iavg= -2.2452E-09  from=  0.0000E+00     to=  5.0000E-05
   spwr= -8.9809E-10
   ireadoff=  6.5435E-14

          ***** job concluded

 *** monte carlo  index =  163


 *** capacitors
    name        eff val



 *** mosfet element parameters
 name           rd eff   rs eff   cdsat    cssat     vto      beta


       MONTE CARLO PARAMETER DEFINITIONS


   iavg= -8.3413E-10  from=  0.0000E+00     to=  5.0000E-05
   spwr= -3.3365E-10
   ireadoff=  9.0762E-15

          ***** job concluded

 *** monte carlo  index =  164


 *** capacitors
    name        eff val



 *** mosfet element parameters
 name           rd eff   rs eff   cdsat    cssat     vto      beta


       MONTE CARLO PARAMETER DEFINITIONS


   iavg= -7.4569E-10  from=  0.0000E+00     to=  5.0000E-05
   spwr= -2.9827E-10
   ireadoff= -2.0790E-13

          ***** job concluded

 *** monte carlo  index =  165


 *** capacitors
    name        eff val



 *** mosfet element parameters
 name           rd eff   rs eff   cdsat    cssat     vto      beta


       MONTE CARLO PARAMETER DEFINITIONS


   iavg= -3.8635E-09  from=  0.0000E+00     to=  5.0000E-05
   spwr= -1.5454E-09
   ireadoff= -2.7022E-12

          ***** job concluded

 *** monte carlo  index =  166


 *** capacitors
    name        eff val



 *** mosfet element parameters
 name           rd eff   rs eff   cdsat    cssat     vto      beta


       MONTE CARLO PARAMETER DEFINITIONS


   iavg= -3.0416E-09  from=  0.0000E+00     to=  5.0000E-05
   spwr= -1.2166E-09
   ireadoff=  3.9821E-14

          ***** job concluded

 *** monte carlo  index =  167


 *** capacitors
    name        eff val



 *** mosfet element parameters
 name           rd eff   rs eff   cdsat    cssat     vto      beta


       MONTE CARLO PARAMETER DEFINITIONS


   iavg= -2.4106E-09  from=  0.0000E+00     to=  5.0000E-05
   spwr= -9.6424E-10
   ireadoff= -2.2373E-13

          ***** job concluded

 *** monte carlo  index =  168


 *** capacitors
    name        eff val



 *** mosfet element parameters
 name           rd eff   rs eff   cdsat    cssat     vto      beta


       MONTE CARLO PARAMETER DEFINITIONS


   iavg= -3.2894E-08  from=  0.0000E+00     to=  5.0000E-05
   spwr= -1.3157E-08
   ireadoff=  1.2215E-13

          ***** job concluded

 *** monte carlo  index =  169


 *** capacitors
    name        eff val



 *** mosfet element parameters
 name           rd eff   rs eff   cdsat    cssat     vto      beta


       MONTE CARLO PARAMETER DEFINITIONS


   iavg= -1.3567E-09  from=  0.0000E+00     to=  5.0000E-05
   spwr= -5.4269E-10
   ireadoff=  1.6988E-13

          ***** job concluded

 *** monte carlo  index =  170


 *** capacitors
    name        eff val



 *** mosfet element parameters
 name           rd eff   rs eff   cdsat    cssat     vto      beta


       MONTE CARLO PARAMETER DEFINITIONS


   iavg= -2.6371E-09  from=  0.0000E+00     to=  5.0000E-05
   spwr= -1.0549E-09
   ireadoff= -9.9932E-13

          ***** job concluded

 *** monte carlo  index =  171


 *** capacitors
    name        eff val



 *** mosfet element parameters
 name           rd eff   rs eff   cdsat    cssat     vto      beta


       MONTE CARLO PARAMETER DEFINITIONS


   iavg= -1.1926E-09  from=  0.0000E+00     to=  5.0000E-05
   spwr= -4.7704E-10
   ireadoff=  2.3019E-13

          ***** job concluded

 *** monte carlo  index =  172


 *** capacitors
    name        eff val



 *** mosfet element parameters
 name           rd eff   rs eff   cdsat    cssat     vto      beta


       MONTE CARLO PARAMETER DEFINITIONS


   iavg= -3.8615E-09  from=  0.0000E+00     to=  5.0000E-05
   spwr= -1.5446E-09
   ireadoff=  1.3322E-12

          ***** job concluded

 *** monte carlo  index =  173


 *** capacitors
    name        eff val



 *** mosfet element parameters
 name           rd eff   rs eff   cdsat    cssat     vto      beta


       MONTE CARLO PARAMETER DEFINITIONS


   iavg= -7.6980E-09  from=  0.0000E+00     to=  5.0000E-05
   spwr= -3.0792E-09
   ireadoff=  3.2971E-13

          ***** job concluded

 *** monte carlo  index =  174


 *** capacitors
    name        eff val



 *** mosfet element parameters
 name           rd eff   rs eff   cdsat    cssat     vto      beta


       MONTE CARLO PARAMETER DEFINITIONS


   iavg= -9.8103E-10  from=  0.0000E+00     to=  5.0000E-05
   spwr= -3.9241E-10
   ireadoff=  3.2855E-13

          ***** job concluded

 *** monte carlo  index =  175


 *** capacitors
    name        eff val



 *** mosfet element parameters
 name           rd eff   rs eff   cdsat    cssat     vto      beta


       MONTE CARLO PARAMETER DEFINITIONS


   iavg= -5.0738E-09  from=  0.0000E+00     to=  5.0000E-05
   spwr= -2.0295E-09
   ireadoff= -6.7898E-13

          ***** job concluded

 *** monte carlo  index =  176


 *** capacitors
    name        eff val



 *** mosfet element parameters
 name           rd eff   rs eff   cdsat    cssat     vto      beta


       MONTE CARLO PARAMETER DEFINITIONS


   iavg= -2.2483E-09  from=  0.0000E+00     to=  5.0000E-05
   spwr= -8.9932E-10
   ireadoff=  2.2276E-13

          ***** job concluded

 *** monte carlo  index =  177


 *** capacitors
    name        eff val



 *** mosfet element parameters
 name           rd eff   rs eff   cdsat    cssat     vto      beta


       MONTE CARLO PARAMETER DEFINITIONS


   iavg= -7.4115E-10  from=  0.0000E+00     to=  5.0000E-05
   spwr= -2.9646E-10
   ireadoff=  8.2547E-15

          ***** job concluded

 *** monte carlo  index =  178


 *** capacitors
    name        eff val



 *** mosfet element parameters
 name           rd eff   rs eff   cdsat    cssat     vto      beta


       MONTE CARLO PARAMETER DEFINITIONS


   iavg= -1.4551E-09  from=  0.0000E+00     to=  5.0000E-05
   spwr= -5.8202E-10
   ireadoff= -7.8684E-13

          ***** job concluded

 *** monte carlo  index =  179


 *** capacitors
    name        eff val



 *** mosfet element parameters
 name           rd eff   rs eff   cdsat    cssat     vto      beta


       MONTE CARLO PARAMETER DEFINITIONS


   iavg= -1.3465E-09  from=  0.0000E+00     to=  5.0000E-05
   spwr= -5.3860E-10
   ireadoff= -5.6554E-14

          ***** job concluded

 *** monte carlo  index =  180


 *** capacitors
    name        eff val



 *** mosfet element parameters
 name           rd eff   rs eff   cdsat    cssat     vto      beta


       MONTE CARLO PARAMETER DEFINITIONS


   iavg= -1.2465E-09  from=  0.0000E+00     to=  5.0000E-05
   spwr= -4.9862E-10
   ireadoff= -2.7399E-13

          ***** job concluded

 *** monte carlo  index =  181


 *** capacitors
    name        eff val



 *** mosfet element parameters
 name           rd eff   rs eff   cdsat    cssat     vto      beta


       MONTE CARLO PARAMETER DEFINITIONS


   iavg= -3.4168E-09  from=  0.0000E+00     to=  5.0000E-05
   spwr= -1.3667E-09
   ireadoff= -9.1844E-16

          ***** job concluded

 *** monte carlo  index =  182


 *** capacitors
    name        eff val



 *** mosfet element parameters
 name           rd eff   rs eff   cdsat    cssat     vto      beta


       MONTE CARLO PARAMETER DEFINITIONS


   iavg= -9.9399E-10  from=  0.0000E+00     to=  5.0000E-05
   spwr= -3.9760E-10
   ireadoff=  8.3677E-16

          ***** job concluded

 *** monte carlo  index =  183


 *** capacitors
    name        eff val



 *** mosfet element parameters
 name           rd eff   rs eff   cdsat    cssat     vto      beta


       MONTE CARLO PARAMETER DEFINITIONS


   iavg= -1.7366E-09  from=  0.0000E+00     to=  5.0000E-05
   spwr= -6.9464E-10
   ireadoff=  3.6771E-13

          ***** job concluded

 *** monte carlo  index =  184


 *** capacitors
    name        eff val



 *** mosfet element parameters
 name           rd eff   rs eff   cdsat    cssat     vto      beta


       MONTE CARLO PARAMETER DEFINITIONS


   iavg= -4.5946E-09  from=  0.0000E+00     to=  5.0000E-05
   spwr= -1.8378E-09
   ireadoff=  8.1013E-14

          ***** job concluded

 *** monte carlo  index =  185


 *** capacitors
    name        eff val



 *** mosfet element parameters
 name           rd eff   rs eff   cdsat    cssat     vto      beta


       MONTE CARLO PARAMETER DEFINITIONS


   iavg= -1.1591E-09  from=  0.0000E+00     to=  5.0000E-05
   spwr= -4.6363E-10
   ireadoff= -1.6652E-13

          ***** job concluded

 *** monte carlo  index =  186


 *** capacitors
    name        eff val



 *** mosfet element parameters
 name           rd eff   rs eff   cdsat    cssat     vto      beta


       MONTE CARLO PARAMETER DEFINITIONS


   iavg= -3.2560E-09  from=  0.0000E+00     to=  5.0000E-05
   spwr= -1.3024E-09
   ireadoff= -5.2911E-13

          ***** job concluded

 *** monte carlo  index =  187


 *** capacitors
    name        eff val



 *** mosfet element parameters
 name           rd eff   rs eff   cdsat    cssat     vto      beta


       MONTE CARLO PARAMETER DEFINITIONS


   iavg= -2.4018E-09  from=  0.0000E+00     to=  5.0000E-05
   spwr= -9.6071E-10
   ireadoff=  1.4155E-15

          ***** job concluded

 *** monte carlo  index =  188


 *** capacitors
    name        eff val



 *** mosfet element parameters
 name           rd eff   rs eff   cdsat    cssat     vto      beta


       MONTE CARLO PARAMETER DEFINITIONS


   iavg= -1.6293E-09  from=  0.0000E+00     to=  5.0000E-05
   spwr= -6.5173E-10
   ireadoff= -6.6706E-13

          ***** job concluded

 *** monte carlo  index =  189


 *** capacitors
    name        eff val



 *** mosfet element parameters
 name           rd eff   rs eff   cdsat    cssat     vto      beta


       MONTE CARLO PARAMETER DEFINITIONS


   iavg= -1.3202E-09  from=  0.0000E+00     to=  5.0000E-05
   spwr= -5.2810E-10
   ireadoff= -2.3480E-13

          ***** job concluded

 *** monte carlo  index =  190


 *** capacitors
    name        eff val



 *** mosfet element parameters
 name           rd eff   rs eff   cdsat    cssat     vto      beta


       MONTE CARLO PARAMETER DEFINITIONS


   iavg= -1.3368E-09  from=  0.0000E+00     to=  5.0000E-05
   spwr= -5.3471E-10
   ireadoff= -7.4581E-14

          ***** job concluded

 *** monte carlo  index =  191


 *** capacitors
    name        eff val



 *** mosfet element parameters
 name           rd eff   rs eff   cdsat    cssat     vto      beta


       MONTE CARLO PARAMETER DEFINITIONS


   iavg= -2.5591E-09  from=  0.0000E+00     to=  5.0000E-05
   spwr= -1.0237E-09
   ireadoff= -6.5121E-13

          ***** job concluded

 *** monte carlo  index =  192


 *** capacitors
    name        eff val



 *** mosfet element parameters
 name           rd eff   rs eff   cdsat    cssat     vto      beta


       MONTE CARLO PARAMETER DEFINITIONS


   iavg= -9.6569E-10  from=  0.0000E+00     to=  5.0000E-05
   spwr= -3.8627E-10
   ireadoff=  3.6601E-15

          ***** job concluded

 *** monte carlo  index =  193


 *** capacitors
    name        eff val



 *** mosfet element parameters
 name           rd eff   rs eff   cdsat    cssat     vto      beta


       MONTE CARLO PARAMETER DEFINITIONS


   iavg= -1.5215E-09  from=  0.0000E+00     to=  5.0000E-05
   spwr= -6.0858E-10
   ireadoff=  2.5105E-13

          ***** job concluded

 *** monte carlo  index =  194


 *** capacitors
    name        eff val



 *** mosfet element parameters
 name           rd eff   rs eff   cdsat    cssat     vto      beta


       MONTE CARLO PARAMETER DEFINITIONS


   iavg= -1.8419E-09  from=  0.0000E+00     to=  5.0000E-05
   spwr= -7.3677E-10
   ireadoff= -8.4492E-14

          ***** job concluded

 *** monte carlo  index =  195


 *** capacitors
    name        eff val



 *** mosfet element parameters
 name           rd eff   rs eff   cdsat    cssat     vto      beta


       MONTE CARLO PARAMETER DEFINITIONS


   iavg= -3.3511E-09  from=  0.0000E+00     to=  5.0000E-05
   spwr= -1.3405E-09
   ireadoff= -5.1424E-13

          ***** job concluded

 *** monte carlo  index =  196


 *** capacitors
    name        eff val



 *** mosfet element parameters
 name           rd eff   rs eff   cdsat    cssat     vto      beta


       MONTE CARLO PARAMETER DEFINITIONS


   iavg= -1.1209E-09  from=  0.0000E+00     to=  5.0000E-05
   spwr= -4.4836E-10
   ireadoff=  3.8564E-13

          ***** job concluded

 *** monte carlo  index =  197


 *** capacitors
    name        eff val



 *** mosfet element parameters
 name           rd eff   rs eff   cdsat    cssat     vto      beta


       MONTE CARLO PARAMETER DEFINITIONS


   iavg= -6.1819E-10  from=  0.0000E+00     to=  5.0000E-05
   spwr= -2.4727E-10
   ireadoff=  9.9205E-13

          ***** job concluded

 *** monte carlo  index =  198


 *** capacitors
    name        eff val



 *** mosfet element parameters
 name           rd eff   rs eff   cdsat    cssat     vto      beta


       MONTE CARLO PARAMETER DEFINITIONS


   iavg= -5.2345E-09  from=  0.0000E+00     to=  5.0000E-05
   spwr= -2.0938E-09
   ireadoff= -4.7842E-13

          ***** job concluded

 *** monte carlo  index =  199


 *** capacitors
    name        eff val



 *** mosfet element parameters
 name           rd eff   rs eff   cdsat    cssat     vto      beta


       MONTE CARLO PARAMETER DEFINITIONS


   iavg= -1.1701E-09  from=  0.0000E+00     to=  5.0000E-05
   spwr= -4.6804E-10
   ireadoff= -2.4216E-13

          ***** job concluded

 *** monte carlo  index =  200


 *** capacitors
    name        eff val



 *** mosfet element parameters
 name           rd eff   rs eff   cdsat    cssat     vto      beta


       MONTE CARLO PARAMETER DEFINITIONS


   iavg= -9.0780E-10  from=  0.0000E+00     to=  5.0000E-05
   spwr= -3.6312E-10
   ireadoff=  7.4653E-13

          ***** job concluded

 *** monte carlo  index =  201


 *** capacitors
    name        eff val



 *** mosfet element parameters
 name           rd eff   rs eff   cdsat    cssat     vto      beta


       MONTE CARLO PARAMETER DEFINITIONS


   iavg= -1.2816E-09  from=  0.0000E+00     to=  5.0000E-05
   spwr= -5.1266E-10
   ireadoff=  3.9648E-13

          ***** job concluded

 *** monte carlo  index =  202


 *** capacitors
    name        eff val



 *** mosfet element parameters
 name           rd eff   rs eff   cdsat    cssat     vto      beta


       MONTE CARLO PARAMETER DEFINITIONS


   iavg= -8.0368E-09  from=  0.0000E+00     to=  5.0000E-05
   spwr= -3.2147E-09
   ireadoff= -1.1594E-13

          ***** job concluded

 *** monte carlo  index =  203


 *** capacitors
    name        eff val



 *** mosfet element parameters
 name           rd eff   rs eff   cdsat    cssat     vto      beta


       MONTE CARLO PARAMETER DEFINITIONS


   iavg= -1.4561E-09  from=  0.0000E+00     to=  5.0000E-05
   spwr= -5.8243E-10
   ireadoff= -2.1674E-13

          ***** job concluded

 *** monte carlo  index =  204


 *** capacitors
    name        eff val



 *** mosfet element parameters
 name           rd eff   rs eff   cdsat    cssat     vto      beta


       MONTE CARLO PARAMETER DEFINITIONS


   iavg= -8.6769E-10  from=  0.0000E+00     to=  5.0000E-05
   spwr= -3.4708E-10
   ireadoff=  7.4498E-15

          ***** job concluded

 *** monte carlo  index =  205


 *** capacitors
    name        eff val



 *** mosfet element parameters
 name           rd eff   rs eff   cdsat    cssat     vto      beta


       MONTE CARLO PARAMETER DEFINITIONS


   iavg= -7.4975E-09  from=  0.0000E+00     to=  5.0000E-05
   spwr= -2.9990E-09
   ireadoff= -2.8977E-13

          ***** job concluded

 *** monte carlo  index =  206


 *** capacitors
    name        eff val



 *** mosfet element parameters
 name           rd eff   rs eff   cdsat    cssat     vto      beta


       MONTE CARLO PARAMETER DEFINITIONS


   iavg= -1.8408E-09  from=  0.0000E+00     to=  5.0000E-05
   spwr= -7.3631E-10
   ireadoff= -1.3881E-13

          ***** job concluded

 *** monte carlo  index =  207


 *** capacitors
    name        eff val



 *** mosfet element parameters
 name           rd eff   rs eff   cdsat    cssat     vto      beta


       MONTE CARLO PARAMETER DEFINITIONS


   iavg= -2.0471E-09  from=  0.0000E+00     to=  5.0000E-05
   spwr= -8.1883E-10
   ireadoff=  4.5951E-13

          ***** job concluded

 *** monte carlo  index =  208


 *** capacitors
    name        eff val



 *** mosfet element parameters
 name           rd eff   rs eff   cdsat    cssat     vto      beta


       MONTE CARLO PARAMETER DEFINITIONS


   iavg= -4.4147E-09  from=  0.0000E+00     to=  5.0000E-05
   spwr= -1.7659E-09
   ireadoff= -1.8536E-12

          ***** job concluded

 *** monte carlo  index =  209


 *** capacitors
    name        eff val



 *** mosfet element parameters
 name           rd eff   rs eff   cdsat    cssat     vto      beta


       MONTE CARLO PARAMETER DEFINITIONS


   iavg= -5.1780E-10  from=  0.0000E+00     to=  5.0000E-05
   spwr= -2.0712E-10
   ireadoff=  4.0148E-14

          ***** job concluded

 *** monte carlo  index =  210


 *** capacitors
    name        eff val



 *** mosfet element parameters
 name           rd eff   rs eff   cdsat    cssat     vto      beta


       MONTE CARLO PARAMETER DEFINITIONS


   iavg= -2.8067E-09  from=  0.0000E+00     to=  5.0000E-05
   spwr= -1.1227E-09
   ireadoff=  1.1382E-12

          ***** job concluded

 *** monte carlo  index =  211


 *** capacitors
    name        eff val



 *** mosfet element parameters
 name           rd eff   rs eff   cdsat    cssat     vto      beta


       MONTE CARLO PARAMETER DEFINITIONS


   iavg= -1.2363E-09  from=  0.0000E+00     to=  5.0000E-05
   spwr= -4.9450E-10
   ireadoff=  1.3111E-13

          ***** job concluded

 *** monte carlo  index =  212


 *** capacitors
    name        eff val



 *** mosfet element parameters
 name           rd eff   rs eff   cdsat    cssat     vto      beta


       MONTE CARLO PARAMETER DEFINITIONS


   iavg= -7.5667E-10  from=  0.0000E+00     to=  5.0000E-05
   spwr= -3.0267E-10
   ireadoff=  4.3418E-13

          ***** job concluded

 *** monte carlo  index =  213


 *** capacitors
    name        eff val



 *** mosfet element parameters
 name           rd eff   rs eff   cdsat    cssat     vto      beta


       MONTE CARLO PARAMETER DEFINITIONS


   iavg= -1.9874E-09  from=  0.0000E+00     to=  5.0000E-05
   spwr= -7.9496E-10
   ireadoff=  2.5774E-12

          ***** job concluded

 *** monte carlo  index =  214


 *** capacitors
[...]
 name           rd eff   rs eff   cdsat    cssat     vto      beta


       MONTE CARLO PARAMETER DEFINITIONS


   iavg= -2.7701E-09  from=  0.0000E+00     to=  5.0000E-05
   spwr= -1.1080E-09
   ireadoff=  2.7467E-13

          ***** job concluded

 *** monte carlo  index =  451


 *** capacitors
    name        eff val



 *** mosfet element parameters
 name           rd eff   rs eff   cdsat    cssat     vto      beta


       MONTE CARLO PARAMETER DEFINITIONS


   iavg= -7.9381E-09  from=  0.0000E+00     to=  5.0000E-05
   spwr= -3.1752E-09
   ireadoff=  8.5484E-13

          ***** job concluded

 *** monte carlo  index =  452


 *** capacitors
    name        eff val



 *** mosfet element parameters
 name           rd eff   rs eff   cdsat    cssat     vto      beta


       MONTE CARLO PARAMETER DEFINITIONS


   iavg= -1.4917E-09  from=  0.0000E+00     to=  5.0000E-05
   spwr= -5.9668E-10
   ireadoff= -1.2721E-13

          ***** job concluded

 *** monte carlo  index =  453


 *** capacitors
    name        eff val



 *** mosfet element parameters
 name           rd eff   rs eff   cdsat    cssat     vto      beta


       MONTE CARLO PARAMETER DEFINITIONS


   iavg= -1.8500E-09  from=  0.0000E+00     to=  5.0000E-05
   spwr= -7.4000E-10
   ireadoff=  3.1011E-13

          ***** job concluded

 *** monte carlo  index =  454


 *** capacitors
    name        eff val



 *** mosfet element parameters
 name           rd eff   rs eff   cdsat    cssat     vto      beta


       MONTE CARLO PARAMETER DEFINITIONS


   iavg= -4.0136E-09  from=  0.0000E+00     to=  5.0000E-05
   spwr= -1.6055E-09
   ireadoff=  1.7580E-12

          ***** job concluded

 *** monte carlo  index =  455


 *** capacitors
    name        eff val



 *** mosfet element parameters
 name           rd eff   rs eff   cdsat    cssat     vto      beta


       MONTE CARLO PARAMETER DEFINITIONS


   iavg= -9.0403E-10  from=  0.0000E+00     to=  5.0000E-05
   spwr= -3.6161E-10
   ireadoff=  1.0398E-12

          ***** job concluded

 *** monte carlo  index =  456


 *** capacitors
    name        eff val



 *** mosfet element parameters
 name           rd eff   rs eff   cdsat    cssat     vto      beta


       MONTE CARLO PARAMETER DEFINITIONS


   iavg= -2.5194E-09  from=  0.0000E+00     to=  5.0000E-05
   spwr= -1.0078E-09
   ireadoff=  4.5684E-13

          ***** job concluded

 *** monte carlo  index =  457


 *** capacitors
    name        eff val



 *** mosfet element parameters
 name           rd eff   rs eff   cdsat    cssat     vto      beta


       MONTE CARLO PARAMETER DEFINITIONS


   iavg= -1.6168E-09  from=  0.0000E+00     to=  5.0000E-05
   spwr= -6.4672E-10
   ireadoff= -7.1532E-14

          ***** job concluded

 *** monte carlo  index =  458


 *** capacitors
    name        eff val



 *** mosfet element parameters
 name           rd eff   rs eff   cdsat    cssat     vto      beta


       MONTE CARLO PARAMETER DEFINITIONS


   iavg= -2.5496E-09  from=  0.0000E+00     to=  5.0000E-05
   spwr= -1.0198E-09
   ireadoff=  3.0326E-13

          ***** job concluded

 *** monte carlo  index =  459


 *** capacitors
    name        eff val



 *** mosfet element parameters
 name           rd eff   rs eff   cdsat    cssat     vto      beta


       MONTE CARLO PARAMETER DEFINITIONS


   iavg= -4.1243E-10  from=  0.0000E+00     to=  5.0000E-05
   spwr= -1.6497E-10
   ireadoff=  7.0401E-15

          ***** job concluded

 *** monte carlo  index =  460


 *** capacitors
    name        eff val



 *** mosfet element parameters
 name           rd eff   rs eff   cdsat    cssat     vto      beta


       MONTE CARLO PARAMETER DEFINITIONS


   iavg= -2.5135E-09  from=  0.0000E+00     to=  5.0000E-05
   spwr= -1.0054E-09
   ireadoff=  8.6497E-13

          ***** job concluded

 *** monte carlo  index =  461


 *** capacitors
    name        eff val



 *** mosfet element parameters
 name           rd eff   rs eff   cdsat    cssat     vto      beta


       MONTE CARLO PARAMETER DEFINITIONS


   iavg= -1.7043E-09  from=  0.0000E+00     to=  5.0000E-05
   spwr= -6.8174E-10
   ireadoff=  3.7693E-13

          ***** job concluded

 *** monte carlo  index =  462


 *** capacitors
    name        eff val



 *** mosfet element parameters
 name           rd eff   rs eff   cdsat    cssat     vto      beta


       MONTE CARLO PARAMETER DEFINITIONS


   iavg= -2.9154E-09  from=  0.0000E+00     to=  5.0000E-05
   spwr= -1.1662E-09
   ireadoff=  1.1414E-12

          ***** job concluded

 *** monte carlo  index =  463


 *** capacitors
    name        eff val



 *** mosfet element parameters
 name           rd eff   rs eff   cdsat    cssat     vto      beta


       MONTE CARLO PARAMETER DEFINITIONS


   iavg= -1.4358E-09  from=  0.0000E+00     to=  5.0000E-05
   spwr= -5.7434E-10
   ireadoff=  7.9898E-13

          ***** job concluded

 *** monte carlo  index =  464


 *** capacitors
    name        eff val



 *** mosfet element parameters
 name           rd eff   rs eff   cdsat    cssat     vto      beta


       MONTE CARLO PARAMETER DEFINITIONS


   iavg= -1.2970E-08  from=  0.0000E+00     to=  5.0000E-05
   spwr= -5.1878E-09
   ireadoff=  1.0232E-12

          ***** job concluded

 *** monte carlo  index =  465


 *** capacitors
    name        eff val



 *** mosfet element parameters
 name           rd eff   rs eff   cdsat    cssat     vto      beta


       MONTE CARLO PARAMETER DEFINITIONS


   iavg= -2.0070E-09  from=  0.0000E+00     to=  5.0000E-05
   spwr= -8.0282E-10
   ireadoff= -1.0800E-13

          ***** job concluded

 *** monte carlo  index =  466


 *** capacitors
    name        eff val



 *** mosfet element parameters
 name           rd eff   rs eff   cdsat    cssat     vto      beta


       MONTE CARLO PARAMETER DEFINITIONS


   iavg= -1.4307E-09  from=  0.0000E+00     to=  5.0000E-05
   spwr= -5.7227E-10
   ireadoff=  2.3638E-14

          ***** job concluded

 *** monte carlo  index =  467


 *** capacitors
    name        eff val



 *** mosfet element parameters
 name           rd eff   rs eff   cdsat    cssat     vto      beta


       MONTE CARLO PARAMETER DEFINITIONS


   iavg= -9.3283E-10  from=  0.0000E+00     to=  5.0000E-05
   spwr= -3.7313E-10
   ireadoff=  1.0783E-13

          ***** job concluded

 *** monte carlo  index =  468


 *** capacitors
    name        eff val



 *** mosfet element parameters
 name           rd eff   rs eff   cdsat    cssat     vto      beta


       MONTE CARLO PARAMETER DEFINITIONS


   iavg= -1.6629E-09  from=  0.0000E+00     to=  5.0000E-05
   spwr= -6.6518E-10
   ireadoff=  9.3640E-12

          ***** job concluded

 *** monte carlo  index =  469


 *** capacitors
    name        eff val



 *** mosfet element parameters
 name           rd eff   rs eff   cdsat    cssat     vto      beta


       MONTE CARLO PARAMETER DEFINITIONS


   iavg= -9.5849E-10  from=  0.0000E+00     to=  5.0000E-05
   spwr= -3.8339E-10
   ireadoff=  3.7850E-13

          ***** job concluded

 *** monte carlo  index =  470


 *** capacitors
    name        eff val



 *** mosfet element parameters
 name           rd eff   rs eff   cdsat    cssat     vto      beta


       MONTE CARLO PARAMETER DEFINITIONS


   iavg= -2.0251E-09  from=  0.0000E+00     to=  5.0000E-05
   spwr= -8.1005E-10
   ireadoff= -2.4464E-12

          ***** job concluded

 *** monte carlo  index =  471


 *** capacitors
    name        eff val



 *** mosfet element parameters
 name           rd eff   rs eff   cdsat    cssat     vto      beta


       MONTE CARLO PARAMETER DEFINITIONS


   iavg= -1.3113E-09  from=  0.0000E+00     to=  5.0000E-05
   spwr= -5.2454E-10
   ireadoff= -3.8123E-13

          ***** job concluded

 *** monte carlo  index =  472


 *** capacitors
    name        eff val



 *** mosfet element parameters
 name           rd eff   rs eff   cdsat    cssat     vto      beta


       MONTE CARLO PARAMETER DEFINITIONS


   iavg= -7.4847E-09  from=  0.0000E+00     to=  5.0000E-05
   spwr= -2.9939E-09
   ireadoff=  7.7919E-13

          ***** job concluded

 *** monte carlo  index =  473


 *** capacitors
    name        eff val



 *** mosfet element parameters
 name           rd eff   rs eff   cdsat    cssat     vto      beta


       MONTE CARLO PARAMETER DEFINITIONS


   iavg= -7.7318E-10  from=  0.0000E+00     to=  5.0000E-05
   spwr= -3.0927E-10
   ireadoff= -1.9550E-14

          ***** job concluded

 *** monte carlo  index =  474


 *** capacitors
    name        eff val



 *** mosfet element parameters
 name           rd eff   rs eff   cdsat    cssat     vto      beta


       MONTE CARLO PARAMETER DEFINITIONS


   iavg= -6.5906E-10  from=  0.0000E+00     to=  5.0000E-05
   spwr= -2.6363E-10
   ireadoff=  2.9917E-13

          ***** job concluded

 *** monte carlo  index =  475


 *** capacitors
    name        eff val



 *** mosfet element parameters
 name           rd eff   rs eff   cdsat    cssat     vto      beta


       MONTE CARLO PARAMETER DEFINITIONS


   iavg= -8.3773E-10  from=  0.0000E+00     to=  5.0000E-05
   spwr= -3.3509E-10
   ireadoff=  6.8156E-14

          ***** job concluded

 *** monte carlo  index =  476


 *** capacitors
    name        eff val



 *** mosfet element parameters
 name           rd eff   rs eff   cdsat    cssat     vto      beta


       MONTE CARLO PARAMETER DEFINITIONS


   iavg= -1.9574E-09  from=  0.0000E+00     to=  5.0000E-05
   spwr= -7.8296E-10
   ireadoff= -1.7271E-13

          ***** job concluded

 *** monte carlo  index =  477


 *** capacitors
    name        eff val



 *** mosfet element parameters
 name           rd eff   rs eff   cdsat    cssat     vto      beta


       MONTE CARLO PARAMETER DEFINITIONS


   iavg= -8.7944E-10  from=  0.0000E+00     to=  5.0000E-05
   spwr= -3.5178E-10
   ireadoff= -5.2375E-14

          ***** job concluded

 *** monte carlo  index =  478


 *** capacitors
    name        eff val



 *** mosfet element parameters
 name           rd eff   rs eff   cdsat    cssat     vto      beta


       MONTE CARLO PARAMETER DEFINITIONS


   iavg= -2.3558E-09  from=  0.0000E+00     to=  5.0000E-05
   spwr= -9.4232E-10
   ireadoff= -1.0652E-13

          ***** job concluded

 *** monte carlo  index =  479


 *** capacitors
    name        eff val



 *** mosfet element parameters
 name           rd eff   rs eff   cdsat    cssat     vto      beta


       MONTE CARLO PARAMETER DEFINITIONS


   iavg= -6.3202E-10  from=  0.0000E+00     to=  5.0000E-05
   spwr= -2.5281E-10
   ireadoff=  4.4675E-13

          ***** job concluded

 *** monte carlo  index =  480


 *** capacitors
    name        eff val



 *** mosfet element parameters
 name           rd eff   rs eff   cdsat    cssat     vto      beta


       MONTE CARLO PARAMETER DEFINITIONS


   iavg= -1.6534E-09  from=  0.0000E+00     to=  5.0000E-05
   spwr= -6.6135E-10
   ireadoff=  1.8705E-12

          ***** job concluded

 *** monte carlo  index =  481


 *** capacitors
    name        eff val



 *** mosfet element parameters
 name           rd eff   rs eff   cdsat    cssat     vto      beta


       MONTE CARLO PARAMETER DEFINITIONS


   iavg= -1.8645E-09  from=  0.0000E+00     to=  5.0000E-05
   spwr= -7.4580E-10
   ireadoff= -1.7528E-13

          ***** job concluded

 *** monte carlo  index =  482


 *** capacitors
    name        eff val



 *** mosfet element parameters
 name           rd eff   rs eff   cdsat    cssat     vto      beta


       MONTE CARLO PARAMETER DEFINITIONS


   iavg= -2.2992E-09  from=  0.0000E+00     to=  5.0000E-05
   spwr= -9.1969E-10
   ireadoff=  1.2106E-13

          ***** job concluded

 *** monte carlo  index =  483


 *** capacitors
    name        eff val



 *** mosfet element parameters
 name           rd eff   rs eff   cdsat    cssat     vto      beta


       MONTE CARLO PARAMETER DEFINITIONS


   iavg= -1.8721E-09  from=  0.0000E+00     to=  5.0000E-05
   spwr= -7.4882E-10
   ireadoff= -6.6435E-13

          ***** job concluded

 *** monte carlo  index =  484


 *** capacitors
    name        eff val



 *** mosfet element parameters
 name           rd eff   rs eff   cdsat    cssat     vto      beta


       MONTE CARLO PARAMETER DEFINITIONS


   iavg= -7.5004E-10  from=  0.0000E+00     to=  5.0000E-05
   spwr= -3.0002E-10
   ireadoff=  1.5767E-13

          ***** job concluded

 *** monte carlo  index =  485


 *** capacitors
    name        eff val



 *** mosfet element parameters
 name           rd eff   rs eff   cdsat    cssat     vto      beta


       MONTE CARLO PARAMETER DEFINITIONS


   iavg= -1.4063E-09  from=  0.0000E+00     to=  5.0000E-05
   spwr= -5.6253E-10
   ireadoff=  5.1558E-12

          ***** job concluded

 *** monte carlo  index =  486


 *** capacitors
    name        eff val



 *** mosfet element parameters
 name           rd eff   rs eff   cdsat    cssat     vto      beta


       MONTE CARLO PARAMETER DEFINITIONS


   iavg= -1.6694E-09  from=  0.0000E+00     to=  5.0000E-05
   spwr= -6.6776E-10
   ireadoff= -7.9518E-13

          ***** job concluded

 *** monte carlo  index =  487


 *** capacitors
    name        eff val



 *** mosfet element parameters
 name           rd eff   rs eff   cdsat    cssat     vto      beta


       MONTE CARLO PARAMETER DEFINITIONS


   iavg= -8.6267E-10  from=  0.0000E+00     to=  5.0000E-05
   spwr= -3.4507E-10
   ireadoff= -2.5032E-13

          ***** job concluded

 *** monte carlo  index =  488


 *** capacitors
    name        eff val



 *** mosfet element parameters
 name           rd eff   rs eff   cdsat    cssat     vto      beta


       MONTE CARLO PARAMETER DEFINITIONS


   iavg= -1.6761E-09  from=  0.0000E+00     to=  5.0000E-05
   spwr= -6.7042E-10
   ireadoff=  1.8647E-12

          ***** job concluded

 *** monte carlo  index =  489


 *** capacitors
    name        eff val



 *** mosfet element parameters
 name           rd eff   rs eff   cdsat    cssat     vto      beta


       MONTE CARLO PARAMETER DEFINITIONS


   iavg= -3.1705E-09  from=  0.0000E+00     to=  5.0000E-05
   spwr= -1.2682E-09
   ireadoff= -1.4699E-12

          ***** job concluded

 *** monte carlo  index =  490


 *** capacitors
    name        eff val



 *** mosfet element parameters
 name           rd eff   rs eff   cdsat    cssat     vto      beta


       MONTE CARLO PARAMETER DEFINITIONS


   iavg= -2.7934E-09  from=  0.0000E+00     to=  5.0000E-05
   spwr= -1.1174E-09
   ireadoff=  3.7424E-13

          ***** job concluded

 *** monte carlo  index =  491


 *** capacitors
    name        eff val



 *** mosfet element parameters
 name           rd eff   rs eff   cdsat    cssat     vto      beta


       MONTE CARLO PARAMETER DEFINITIONS


   iavg= -1.5091E-09  from=  0.0000E+00     to=  5.0000E-05
   spwr= -6.0364E-10
   ireadoff=  4.0373E-13

          ***** job concluded

 *** monte carlo  index =  492


 *** capacitors
    name        eff val



 *** mosfet element parameters
 name           rd eff   rs eff   cdsat    cssat     vto      beta


       MONTE CARLO PARAMETER DEFINITIONS


   iavg= -9.4631E-10  from=  0.0000E+00     to=  5.0000E-05
   spwr= -3.7853E-10
   ireadoff=  2.2444E-13

          ***** job concluded

 *** monte carlo  index =  493


 *** capacitors
    name        eff val



 *** mosfet element parameters
 name           rd eff   rs eff   cdsat    cssat     vto      beta


       MONTE CARLO PARAMETER DEFINITIONS


   iavg= -2.4187E-09  from=  0.0000E+00     to=  5.0000E-05
   spwr= -9.6748E-10
   ireadoff=  7.8266E-14

          ***** job concluded

 *** monte carlo  index =  494


 *** capacitors
    name        eff val



 *** mosfet element parameters
 name           rd eff   rs eff   cdsat    cssat     vto      beta


       MONTE CARLO PARAMETER DEFINITIONS


   iavg= -7.2456E-10  from=  0.0000E+00     to=  5.0000E-05
   spwr= -2.8982E-10
   ireadoff= -1.5111E-12

          ***** job concluded

 *** monte carlo  index =  495


 *** capacitors
    name        eff val



 *** mosfet element parameters
 name           rd eff   rs eff   cdsat    cssat     vto      beta


       MONTE CARLO PARAMETER DEFINITIONS


   iavg= -1.2345E-09  from=  0.0000E+00     to=  5.0000E-05
   spwr= -4.9382E-10
   ireadoff=  6.2827E-14

          ***** job concluded

 *** monte carlo  index =  496


 *** capacitors
    name        eff val



 *** mosfet element parameters
 name           rd eff   rs eff   cdsat    cssat     vto      beta


       MONTE CARLO PARAMETER DEFINITIONS


   iavg= -3.8224E-09  from=  0.0000E+00     to=  5.0000E-05
   spwr= -1.5290E-09
   ireadoff=  3.8038E-13

          ***** job concluded

 *** monte carlo  index =  497


 *** capacitors
    name        eff val



 *** mosfet element parameters
 name           rd eff   rs eff   cdsat    cssat     vto      beta


       MONTE CARLO PARAMETER DEFINITIONS


   iavg= -3.5343E-09  from=  0.0000E+00     to=  5.0000E-05
   spwr= -1.4137E-09
   ireadoff=  3.4130E-13

          ***** job concluded

 *** monte carlo  index =  498


 *** capacitors
    name        eff val



 *** mosfet element parameters
 name           rd eff   rs eff   cdsat    cssat     vto      beta


       MONTE CARLO PARAMETER DEFINITIONS


   iavg= -2.6021E-09  from=  0.0000E+00     to=  5.0000E-05
   spwr= -1.0408E-09
   ireadoff=  2.0857E-13

          ***** job concluded

 *** monte carlo  index =  499


 *** capacitors
    name        eff val



 *** mosfet element parameters
 name           rd eff   rs eff   cdsat    cssat     vto      beta


       MONTE CARLO PARAMETER DEFINITIONS


   iavg= -1.3179E-08  from=  0.0000E+00     to=  5.0000E-05
   spwr= -5.2715E-09
   ireadoff= -4.8649E-13

          ***** job concluded

 *** monte carlo  index =  500


 *** capacitors
    name        eff val



 *** mosfet element parameters
 name           rd eff   rs eff   cdsat    cssat     vto      beta


       MONTE CARLO PARAMETER DEFINITIONS


   iavg= -3.7328E-09  from=  0.0000E+00     to=  5.0000E-05
   spwr= -1.4931E-09
   ireadoff= -9.8545E-13

 *** capacitors
    name        eff val



 *** mosfet element parameters
 name           rd eff   rs eff   cdsat    cssat     vto      beta



   meas_variable = iavg            
   mean  =-2.915e-09      varian = 1.547e-17    
   sigma = 3.933e-09      avgdev = 2.009e-09    
   max   =-4.027e-10      min    =-4.060e-08    
    1-sigma = 3.933e-09     median =-1.821e-09    

   meas_variable = spwr            
   mean  =-1.166e-09      varian = 2.475e-18    
   sigma = 1.573e-09      avgdev = 8.034e-10    
   max   =-1.611e-10      min    =-1.624e-08    
    1-sigma = 1.573e-09     median =-7.286e-10    

   meas_variable = ireadoff        
   mean  = 2.126e-13      varian = 1.549e-24    
   sigma = 1.244e-12      avgdev = 6.322e-13    
   max   = 1.002e-11      min    =-2.702e-12    
    1-sigma = 1.244e-12     median = 1.090e-13    
 

          ***** job concluded
1****** HSPICE -- A-2008.03 32-BIT (Feb 26 2008) winnt ******                   
 ******  
 .options post                                                                  
  ******  job statistics summary           tnom=  25.000 temp=  27.000          
 ******  

           total memory used        243 kbytes

  # nodes =      32 # elements=      12
  # diodes=       0 # bjts    =       0 # jfets   =       0 # mosfets =       6
  # va device =       0

    analysis           time    # points   tot. iter  conv.iter

    op point           1.21           1        5500
    transient          8.18     2500500       35850       17101 rev=         0
    readin             0.07
    errchk             0.04
    setup              0.01
    output             0.02
           total cpu time         12.43 seconds
           total elapsed time        13 seconds
               job started at  20:31:40 08/07/2017
               job ended   at  20:31:53 08/07/2017


 Init: hspice initialization file: C:\synopsys\Hspice_A-2008.03\hspice.ini
